
---------- Begin Simulation Statistics ----------
simSeconds                                  29.531612                       # Number of seconds simulated (Second)
simTicks                                 29531611978000                       # Number of ticks simulated (Tick)
finalTick                                29531611978000                       # Number of ticks from beginning of simulation (restored from checkpoints and never reset) (Tick)
simFreq                                  1000000000000                       # The number of ticks per simulated second ((Tick/Second))
hostSeconds                                   1672.21                       # Real time elapsed on the host (Second)
hostTickRate                              17660230301                       # The number of ticks simulated per host second (ticks/s) ((Tick/Second))
hostMemory                                    1175464                       # Number of bytes of host memory used (Byte)
simInsts                                    354748550                       # Number of instructions simulated (Count)
simOps                                      663881334                       # Number of ops (including micro ops) simulated (Count)
hostInstRate                                   212144                       # Simulator instruction rate (inst/s) ((Count/Second))
hostOpRate                                     397008                       # Simulator op (including micro ops) rate (op/s) ((Count/Second))
system.clk_domain.clock                          1000                       # Clock period in ticks (Tick)
system.clk_domain.voltage_domain.voltage            1                       # Voltage in Volts (Volt)
system.cpu.numCycles                      29531611978                       # Number of cpu cycles simulated (Cycle)
system.cpu.numWorkItemsStarted                      0                       # Number of work items this cpu started (Count)
system.cpu.numWorkItemsCompleted                    0                       # Number of work items this cpu completed (Count)
system.cpu.exec_context.thread_0.numInsts    354748550                       # Number of instructions committed (Count)
system.cpu.exec_context.thread_0.numOps     663881334                       # Number of ops (including micro ops) committed (Count)
system.cpu.exec_context.thread_0.numIntAluAccesses    585840195                       # Number of integer alu accesses (Count)
system.cpu.exec_context.thread_0.numFpAluAccesses     89587918                       # Number of float alu accesses (Count)
system.cpu.exec_context.thread_0.numVecAluAccesses            0                       # Number of vector alu accesses (Count)
system.cpu.exec_context.thread_0.numCallsReturns     11375746                       # Number of times a function call or return occured (Count)
system.cpu.exec_context.thread_0.numCondCtrlInsts     45284848                       # Number of instructions that are conditional controls (Count)
system.cpu.exec_context.thread_0.numIntInsts    585840195                       # Number of integer instructions (Count)
system.cpu.exec_context.thread_0.numFpInsts     89587918                       # Number of float instructions (Count)
system.cpu.exec_context.thread_0.numVecInsts            0                       # Number of vector instructions (Count)
system.cpu.exec_context.thread_0.numIntRegReads    910169986                       # Number of times the integer registers were read (Count)
system.cpu.exec_context.thread_0.numIntRegWrites    466020058                       # Number of times the integer registers were written (Count)
system.cpu.exec_context.thread_0.numFpRegReads    175867875                       # Number of times the floating registers were read (Count)
system.cpu.exec_context.thread_0.numFpRegWrites     88440460                       # Number of times the floating registers were written (Count)
system.cpu.exec_context.thread_0.numVecRegReads            0                       # Number of times the vector registers were read (Count)
system.cpu.exec_context.thread_0.numVecRegWrites            0                       # Number of times the vector registers were written (Count)
system.cpu.exec_context.thread_0.numVecPredRegReads            0                       # Number of times the predicate registers were read (Count)
system.cpu.exec_context.thread_0.numVecPredRegWrites            0                       # Number of times the predicate registers were written (Count)
system.cpu.exec_context.thread_0.numCCRegReads    332414331                       # Number of times the CC registers were read (Count)
system.cpu.exec_context.thread_0.numCCRegWrites    167304731                       # Number of times the CC registers were written (Count)
system.cpu.exec_context.thread_0.numMiscRegReads    257342892                       # Number of times the Misc registers were read (Count)
system.cpu.exec_context.thread_0.numMiscRegWrites         1035                       # Number of times the Misc registers were written (Count)
system.cpu.exec_context.thread_0.numMemRefs    129991711                       # Number of memory refs (Count)
system.cpu.exec_context.thread_0.numLoadInsts     89276586                       # Number of load instructions (Count)
system.cpu.exec_context.thread_0.numStoreInsts     40715125                       # Number of store instructions (Count)
system.cpu.exec_context.thread_0.numIdleCycles     0.001000                       # Number of idle cycles (Cycle)
system.cpu.exec_context.thread_0.numBusyCycles 29531611977.999001                       # Number of busy cycles (Cycle)
system.cpu.exec_context.thread_0.notIdleFraction     1.000000                       # Percentage of non-idle cycles (Ratio)
system.cpu.exec_context.thread_0.idleFraction     0.000000                       # Percentage of idle cycles (Ratio)
system.cpu.exec_context.thread_0.numBranches     64372154                       # Number of branches fetched (Count)
system.cpu.exec_context.thread_0.statExecutedInstType::No_OpClass      5286378      0.80%      0.80% # Class of executed instruction. (Count)
system.cpu.exec_context.thread_0.statExecutedInstType::IntAlu    439814481     66.25%     67.05% # Class of executed instruction. (Count)
system.cpu.exec_context.thread_0.statExecutedInstType::IntMult        59025      0.01%     67.05% # Class of executed instruction. (Count)
system.cpu.exec_context.thread_0.statExecutedInstType::IntDiv       710917      0.11%     67.16% # Class of executed instruction. (Count)
system.cpu.exec_context.thread_0.statExecutedInstType::FloatAdd       453247      0.07%     67.23% # Class of executed instruction. (Count)
system.cpu.exec_context.thread_0.statExecutedInstType::FloatCmp            0      0.00%     67.23% # Class of executed instruction. (Count)
system.cpu.exec_context.thread_0.statExecutedInstType::FloatCvt         1840      0.00%     67.23% # Class of executed instruction. (Count)
system.cpu.exec_context.thread_0.statExecutedInstType::FloatMult            0      0.00%     67.23% # Class of executed instruction. (Count)
system.cpu.exec_context.thread_0.statExecutedInstType::FloatMultAcc            0      0.00%     67.23% # Class of executed instruction. (Count)
system.cpu.exec_context.thread_0.statExecutedInstType::FloatDiv            0      0.00%     67.23% # Class of executed instruction. (Count)
system.cpu.exec_context.thread_0.statExecutedInstType::FloatMisc            0      0.00%     67.23% # Class of executed instruction. (Count)
system.cpu.exec_context.thread_0.statExecutedInstType::FloatSqrt            0      0.00%     67.23% # Class of executed instruction. (Count)
system.cpu.exec_context.thread_0.statExecutedInstType::SimdAdd       240024      0.04%     67.27% # Class of executed instruction. (Count)
system.cpu.exec_context.thread_0.statExecutedInstType::SimdAddAcc            0      0.00%     67.27% # Class of executed instruction. (Count)
system.cpu.exec_context.thread_0.statExecutedInstType::SimdAlu     31180994      4.70%     71.96% # Class of executed instruction. (Count)
system.cpu.exec_context.thread_0.statExecutedInstType::SimdCmp        11766      0.00%     71.96% # Class of executed instruction. (Count)
system.cpu.exec_context.thread_0.statExecutedInstType::SimdCvt       947516      0.14%     72.11% # Class of executed instruction. (Count)
system.cpu.exec_context.thread_0.statExecutedInstType::SimdMisc     16493431      2.48%     74.59% # Class of executed instruction. (Count)
system.cpu.exec_context.thread_0.statExecutedInstType::SimdMult            0      0.00%     74.59% # Class of executed instruction. (Count)
system.cpu.exec_context.thread_0.statExecutedInstType::SimdMultAcc            0      0.00%     74.59% # Class of executed instruction. (Count)
system.cpu.exec_context.thread_0.statExecutedInstType::SimdShift            0      0.00%     74.59% # Class of executed instruction. (Count)
system.cpu.exec_context.thread_0.statExecutedInstType::SimdShiftAcc            0      0.00%     74.59% # Class of executed instruction. (Count)
system.cpu.exec_context.thread_0.statExecutedInstType::SimdDiv            0      0.00%     74.59% # Class of executed instruction. (Count)
system.cpu.exec_context.thread_0.statExecutedInstType::SimdSqrt            0      0.00%     74.59% # Class of executed instruction. (Count)
system.cpu.exec_context.thread_0.statExecutedInstType::SimdFloatAdd      7680000      1.16%     75.75% # Class of executed instruction. (Count)
system.cpu.exec_context.thread_0.statExecutedInstType::SimdFloatAlu            0      0.00%     75.75% # Class of executed instruction. (Count)
system.cpu.exec_context.thread_0.statExecutedInstType::SimdFloatCmp            0      0.00%     75.75% # Class of executed instruction. (Count)
system.cpu.exec_context.thread_0.statExecutedInstType::SimdFloatCvt     23330000      3.51%     79.26% # Class of executed instruction. (Count)
system.cpu.exec_context.thread_0.statExecutedInstType::SimdFloatDiv            0      0.00%     79.26% # Class of executed instruction. (Count)
system.cpu.exec_context.thread_0.statExecutedInstType::SimdFloatMisc            0      0.00%     79.26% # Class of executed instruction. (Count)
system.cpu.exec_context.thread_0.statExecutedInstType::SimdFloatMult      7680447      1.16%     80.42% # Class of executed instruction. (Count)
system.cpu.exec_context.thread_0.statExecutedInstType::SimdFloatMultAcc            0      0.00%     80.42% # Class of executed instruction. (Count)
system.cpu.exec_context.thread_0.statExecutedInstType::SimdFloatSqrt            0      0.00%     80.42% # Class of executed instruction. (Count)
system.cpu.exec_context.thread_0.statExecutedInstType::SimdReduceAdd            0      0.00%     80.42% # Class of executed instruction. (Count)
system.cpu.exec_context.thread_0.statExecutedInstType::SimdReduceAlu            0      0.00%     80.42% # Class of executed instruction. (Count)
system.cpu.exec_context.thread_0.statExecutedInstType::SimdReduceCmp            0      0.00%     80.42% # Class of executed instruction. (Count)
system.cpu.exec_context.thread_0.statExecutedInstType::SimdFloatReduceAdd            0      0.00%     80.42% # Class of executed instruction. (Count)
system.cpu.exec_context.thread_0.statExecutedInstType::SimdFloatReduceCmp            0      0.00%     80.42% # Class of executed instruction. (Count)
system.cpu.exec_context.thread_0.statExecutedInstType::SimdAes            0      0.00%     80.42% # Class of executed instruction. (Count)
system.cpu.exec_context.thread_0.statExecutedInstType::SimdAesMix            0      0.00%     80.42% # Class of executed instruction. (Count)
system.cpu.exec_context.thread_0.statExecutedInstType::SimdSha1Hash            0      0.00%     80.42% # Class of executed instruction. (Count)
system.cpu.exec_context.thread_0.statExecutedInstType::SimdSha1Hash2            0      0.00%     80.42% # Class of executed instruction. (Count)
system.cpu.exec_context.thread_0.statExecutedInstType::SimdSha256Hash            0      0.00%     80.42% # Class of executed instruction. (Count)
system.cpu.exec_context.thread_0.statExecutedInstType::SimdSha256Hash2            0      0.00%     80.42% # Class of executed instruction. (Count)
system.cpu.exec_context.thread_0.statExecutedInstType::SimdShaSigma2            0      0.00%     80.42% # Class of executed instruction. (Count)
system.cpu.exec_context.thread_0.statExecutedInstType::SimdShaSigma3            0      0.00%     80.42% # Class of executed instruction. (Count)
system.cpu.exec_context.thread_0.statExecutedInstType::SimdPredAlu            0      0.00%     80.42% # Class of executed instruction. (Count)
system.cpu.exec_context.thread_0.statExecutedInstType::MemRead     87924433     13.24%     93.66% # Class of executed instruction. (Count)
system.cpu.exec_context.thread_0.statExecutedInstType::MemWrite     40549170      6.11%     99.77% # Class of executed instruction. (Count)
system.cpu.exec_context.thread_0.statExecutedInstType::FloatMemRead      1352153      0.20%     99.98% # Class of executed instruction. (Count)
system.cpu.exec_context.thread_0.statExecutedInstType::FloatMemWrite       165955      0.02%    100.00% # Class of executed instruction. (Count)
system.cpu.exec_context.thread_0.statExecutedInstType::IprAccess            0      0.00%    100.00% # Class of executed instruction. (Count)
system.cpu.exec_context.thread_0.statExecutedInstType::InstPrefetch            0      0.00%    100.00% # Class of executed instruction. (Count)
system.cpu.exec_context.thread_0.statExecutedInstType::total    663881777                       # Class of executed instruction. (Count)
system.cpu.interrupts.clk_domain.clock          16000                       # Clock period in ticks (Tick)
system.cpu.mmu.dtb.rdAccesses                89281898                       # TLB accesses on read requests (Count)
system.cpu.mmu.dtb.wrAccesses                40733348                       # TLB accesses on write requests (Count)
system.cpu.mmu.dtb.rdMisses                      1642                       # TLB misses on read requests (Count)
system.cpu.mmu.dtb.wrMisses                       104                       # TLB misses on write requests (Count)
system.cpu.mmu.dtb.walker.power_state.pwrStateResidencyTicks::UNDEFINED 29531611978000                       # Cumulative time (in ticks) in various power states (Tick)
system.cpu.mmu.itb.rdAccesses                       0                       # TLB accesses on read requests (Count)
system.cpu.mmu.itb.wrAccesses               461305457                       # TLB accesses on write requests (Count)
system.cpu.mmu.itb.rdMisses                         0                       # TLB misses on read requests (Count)
system.cpu.mmu.itb.wrMisses                       464                       # TLB misses on write requests (Count)
system.cpu.mmu.itb.walker.power_state.pwrStateResidencyTicks::UNDEFINED 29531611978000                       # Cumulative time (in ticks) in various power states (Tick)
system.cpu.power_state.pwrStateResidencyTicks::ON 29531611978000                       # Cumulative time (in ticks) in various power states (Tick)
system.cpu.thread_0.numInsts                        0                       # Number of Instructions committed (Count)
system.cpu.thread_0.numOps                          0                       # Number of Ops committed (Count)
system.cpu.thread_0.numMemRefs                      0                       # Number of Memory References (Count)
system.cpu.workload.numSyscalls                   188                       # Number of system calls (Count)
system.mem_ctrl.avgPriority_cpu.inst::samples 461305318.00                       # Average QoS priority value for accepted requests (Count)
system.mem_ctrl.avgPriority_cpu.data::samples  80817399.00                       # Average QoS priority value for accepted requests (Count)
system.mem_ctrl.priorityMinLatency       0.000000018750                       # per QoS priority minimum request to response latency (Second)
system.mem_ctrl.priorityMaxLatency       0.031830026500                       # per QoS priority maximum request to response latency (Second)
system.mem_ctrl.numReadWriteTurnArounds         32971                       # Number of turnarounds from READ to WRITE (Count)
system.mem_ctrl.numWriteReadTurnArounds         32971                       # Number of turnarounds from WRITE to READ (Count)
system.mem_ctrl.numStayReadState           1131475325                       # Number of times bus staying in READ state (Count)
system.mem_ctrl.numStayWriteState              495324                       # Number of times bus staying in WRITE state (Count)
system.mem_ctrl.readReqs                    550586993                       # Number of read requests accepted (Count)
system.mem_ctrl.writeReqs                    40733316                       # Number of write requests accepted (Count)
system.mem_ctrl.readBursts                  550586993                       # Number of controller read bursts, including those serviced by the write queue (Count)
system.mem_ctrl.writeBursts                  40733316                       # Number of controller write bursts, including those merged in the write queue (Count)
system.mem_ctrl.servicedByWrQ                 8991916                       # Number of controller read bursts serviced by the write queue (Count)
system.mem_ctrl.mergedWrBursts               40205676                       # Number of controller write bursts merged with an existing one (Count)
system.mem_ctrl.neitherReadNorWriteReqs             0                       # Number of requests that are neither read nor write (Count)
system.mem_ctrl.avgRdQLen                        1.00                       # Average read queue length when enqueuing ((Count/Tick))
system.mem_ctrl.avgWrQLen                       28.87                       # Average write queue length when enqueuing ((Count/Tick))
system.mem_ctrl.numRdRetry                          0                       # Number of times read queue was full causing retry (Count)
system.mem_ctrl.numWrRetry                          0                       # Number of times write queue was full causing retry (Count)
system.mem_ctrl.readPktSize::0                5882448                       # Read request sizes (log2) (Count)
system.mem_ctrl.readPktSize::1               15519494                       # Read request sizes (log2) (Count)
system.mem_ctrl.readPktSize::2                6341265                       # Read request sizes (log2) (Count)
system.mem_ctrl.readPktSize::3              522843786                       # Read request sizes (log2) (Count)
system.mem_ctrl.readPktSize::4                      0                       # Read request sizes (log2) (Count)
system.mem_ctrl.readPktSize::5                      0                       # Read request sizes (log2) (Count)
system.mem_ctrl.readPktSize::6                      0                       # Read request sizes (log2) (Count)
system.mem_ctrl.writePktSize::0               3016496                       # Write request sizes (log2) (Count)
system.mem_ctrl.writePktSize::1                322405                       # Write request sizes (log2) (Count)
system.mem_ctrl.writePktSize::2               4010159                       # Write request sizes (log2) (Count)
system.mem_ctrl.writePktSize::3              33384256                       # Write request sizes (log2) (Count)
system.mem_ctrl.writePktSize::4                     0                       # Write request sizes (log2) (Count)
system.mem_ctrl.writePktSize::5                     0                       # Write request sizes (log2) (Count)
system.mem_ctrl.writePktSize::6                     0                       # Write request sizes (log2) (Count)
system.mem_ctrl.rdQLenPdf::0                541590539                       # What read queue length does an incoming req see (Count)
system.mem_ctrl.rdQLenPdf::1                     4538                       # What read queue length does an incoming req see (Count)
system.mem_ctrl.rdQLenPdf::2                        0                       # What read queue length does an incoming req see (Count)
system.mem_ctrl.rdQLenPdf::3                        0                       # What read queue length does an incoming req see (Count)
system.mem_ctrl.rdQLenPdf::4                        0                       # What read queue length does an incoming req see (Count)
system.mem_ctrl.rdQLenPdf::5                        0                       # What read queue length does an incoming req see (Count)
system.mem_ctrl.rdQLenPdf::6                        0                       # What read queue length does an incoming req see (Count)
system.mem_ctrl.rdQLenPdf::7                        0                       # What read queue length does an incoming req see (Count)
system.mem_ctrl.rdQLenPdf::8                        0                       # What read queue length does an incoming req see (Count)
system.mem_ctrl.rdQLenPdf::9                        0                       # What read queue length does an incoming req see (Count)
system.mem_ctrl.rdQLenPdf::10                       0                       # What read queue length does an incoming req see (Count)
system.mem_ctrl.rdQLenPdf::11                       0                       # What read queue length does an incoming req see (Count)
system.mem_ctrl.rdQLenPdf::12                       0                       # What read queue length does an incoming req see (Count)
system.mem_ctrl.rdQLenPdf::13                       0                       # What read queue length does an incoming req see (Count)
system.mem_ctrl.rdQLenPdf::14                       0                       # What read queue length does an incoming req see (Count)
system.mem_ctrl.rdQLenPdf::15                       0                       # What read queue length does an incoming req see (Count)
system.mem_ctrl.rdQLenPdf::16                       0                       # What read queue length does an incoming req see (Count)
system.mem_ctrl.rdQLenPdf::17                       0                       # What read queue length does an incoming req see (Count)
system.mem_ctrl.rdQLenPdf::18                       0                       # What read queue length does an incoming req see (Count)
system.mem_ctrl.rdQLenPdf::19                       0                       # What read queue length does an incoming req see (Count)
system.mem_ctrl.rdQLenPdf::20                       0                       # What read queue length does an incoming req see (Count)
system.mem_ctrl.rdQLenPdf::21                       0                       # What read queue length does an incoming req see (Count)
system.mem_ctrl.rdQLenPdf::22                       0                       # What read queue length does an incoming req see (Count)
system.mem_ctrl.rdQLenPdf::23                       0                       # What read queue length does an incoming req see (Count)
system.mem_ctrl.rdQLenPdf::24                       0                       # What read queue length does an incoming req see (Count)
system.mem_ctrl.rdQLenPdf::25                       0                       # What read queue length does an incoming req see (Count)
system.mem_ctrl.rdQLenPdf::26                       0                       # What read queue length does an incoming req see (Count)
system.mem_ctrl.rdQLenPdf::27                       0                       # What read queue length does an incoming req see (Count)
system.mem_ctrl.rdQLenPdf::28                       0                       # What read queue length does an incoming req see (Count)
system.mem_ctrl.rdQLenPdf::29                       0                       # What read queue length does an incoming req see (Count)
system.mem_ctrl.rdQLenPdf::30                       0                       # What read queue length does an incoming req see (Count)
system.mem_ctrl.rdQLenPdf::31                       0                       # What read queue length does an incoming req see (Count)
system.mem_ctrl.wrQLenPdf::0                        1                       # What write queue length does an incoming req see (Count)
system.mem_ctrl.wrQLenPdf::1                        1                       # What write queue length does an incoming req see (Count)
system.mem_ctrl.wrQLenPdf::2                        1                       # What write queue length does an incoming req see (Count)
system.mem_ctrl.wrQLenPdf::3                        1                       # What write queue length does an incoming req see (Count)
system.mem_ctrl.wrQLenPdf::4                        1                       # What write queue length does an incoming req see (Count)
system.mem_ctrl.wrQLenPdf::5                        1                       # What write queue length does an incoming req see (Count)
system.mem_ctrl.wrQLenPdf::6                        1                       # What write queue length does an incoming req see (Count)
system.mem_ctrl.wrQLenPdf::7                        1                       # What write queue length does an incoming req see (Count)
system.mem_ctrl.wrQLenPdf::8                        1                       # What write queue length does an incoming req see (Count)
system.mem_ctrl.wrQLenPdf::9                        1                       # What write queue length does an incoming req see (Count)
system.mem_ctrl.wrQLenPdf::10                       1                       # What write queue length does an incoming req see (Count)
system.mem_ctrl.wrQLenPdf::11                       1                       # What write queue length does an incoming req see (Count)
system.mem_ctrl.wrQLenPdf::12                       1                       # What write queue length does an incoming req see (Count)
system.mem_ctrl.wrQLenPdf::13                       1                       # What write queue length does an incoming req see (Count)
system.mem_ctrl.wrQLenPdf::14                       1                       # What write queue length does an incoming req see (Count)
system.mem_ctrl.wrQLenPdf::15                      42                       # What write queue length does an incoming req see (Count)
system.mem_ctrl.wrQLenPdf::16                      42                       # What write queue length does an incoming req see (Count)
system.mem_ctrl.wrQLenPdf::17                   32970                       # What write queue length does an incoming req see (Count)
system.mem_ctrl.wrQLenPdf::18                   32972                       # What write queue length does an incoming req see (Count)
system.mem_ctrl.wrQLenPdf::19                   32972                       # What write queue length does an incoming req see (Count)
system.mem_ctrl.wrQLenPdf::20                   32972                       # What write queue length does an incoming req see (Count)
system.mem_ctrl.wrQLenPdf::21                   32971                       # What write queue length does an incoming req see (Count)
system.mem_ctrl.wrQLenPdf::22                   32972                       # What write queue length does an incoming req see (Count)
system.mem_ctrl.wrQLenPdf::23                   32973                       # What write queue length does an incoming req see (Count)
system.mem_ctrl.wrQLenPdf::24                   32971                       # What write queue length does an incoming req see (Count)
system.mem_ctrl.wrQLenPdf::25                   32971                       # What write queue length does an incoming req see (Count)
system.mem_ctrl.wrQLenPdf::26                   32971                       # What write queue length does an incoming req see (Count)
system.mem_ctrl.wrQLenPdf::27                   32971                       # What write queue length does an incoming req see (Count)
system.mem_ctrl.wrQLenPdf::28                   32971                       # What write queue length does an incoming req see (Count)
system.mem_ctrl.wrQLenPdf::29                   32971                       # What write queue length does an incoming req see (Count)
system.mem_ctrl.wrQLenPdf::30                   32971                       # What write queue length does an incoming req see (Count)
system.mem_ctrl.wrQLenPdf::31                   32971                       # What write queue length does an incoming req see (Count)
system.mem_ctrl.wrQLenPdf::32                   32971                       # What write queue length does an incoming req see (Count)
system.mem_ctrl.wrQLenPdf::33                       0                       # What write queue length does an incoming req see (Count)
system.mem_ctrl.wrQLenPdf::34                       0                       # What write queue length does an incoming req see (Count)
system.mem_ctrl.wrQLenPdf::35                       0                       # What write queue length does an incoming req see (Count)
system.mem_ctrl.wrQLenPdf::36                       0                       # What write queue length does an incoming req see (Count)
system.mem_ctrl.wrQLenPdf::37                       0                       # What write queue length does an incoming req see (Count)
system.mem_ctrl.wrQLenPdf::38                       0                       # What write queue length does an incoming req see (Count)
system.mem_ctrl.wrQLenPdf::39                       0                       # What write queue length does an incoming req see (Count)
system.mem_ctrl.wrQLenPdf::40                       0                       # What write queue length does an incoming req see (Count)
system.mem_ctrl.wrQLenPdf::41                       0                       # What write queue length does an incoming req see (Count)
system.mem_ctrl.wrQLenPdf::42                       0                       # What write queue length does an incoming req see (Count)
system.mem_ctrl.wrQLenPdf::43                       0                       # What write queue length does an incoming req see (Count)
system.mem_ctrl.wrQLenPdf::44                       0                       # What write queue length does an incoming req see (Count)
system.mem_ctrl.wrQLenPdf::45                       0                       # What write queue length does an incoming req see (Count)
system.mem_ctrl.wrQLenPdf::46                       0                       # What write queue length does an incoming req see (Count)
system.mem_ctrl.wrQLenPdf::47                       0                       # What write queue length does an incoming req see (Count)
system.mem_ctrl.wrQLenPdf::48                       0                       # What write queue length does an incoming req see (Count)
system.mem_ctrl.wrQLenPdf::49                       0                       # What write queue length does an incoming req see (Count)
system.mem_ctrl.wrQLenPdf::50                       0                       # What write queue length does an incoming req see (Count)
system.mem_ctrl.wrQLenPdf::51                       0                       # What write queue length does an incoming req see (Count)
system.mem_ctrl.wrQLenPdf::52                       0                       # What write queue length does an incoming req see (Count)
system.mem_ctrl.wrQLenPdf::53                       0                       # What write queue length does an incoming req see (Count)
system.mem_ctrl.wrQLenPdf::54                       0                       # What write queue length does an incoming req see (Count)
system.mem_ctrl.wrQLenPdf::55                       0                       # What write queue length does an incoming req see (Count)
system.mem_ctrl.wrQLenPdf::56                       0                       # What write queue length does an incoming req see (Count)
system.mem_ctrl.wrQLenPdf::57                       0                       # What write queue length does an incoming req see (Count)
system.mem_ctrl.wrQLenPdf::58                       0                       # What write queue length does an incoming req see (Count)
system.mem_ctrl.wrQLenPdf::59                       0                       # What write queue length does an incoming req see (Count)
system.mem_ctrl.wrQLenPdf::60                       0                       # What write queue length does an incoming req see (Count)
system.mem_ctrl.wrQLenPdf::61                       0                       # What write queue length does an incoming req see (Count)
system.mem_ctrl.wrQLenPdf::62                       0                       # What write queue length does an incoming req see (Count)
system.mem_ctrl.wrQLenPdf::63                       0                       # What write queue length does an incoming req see (Count)
system.mem_ctrl.rdPerTurnAround::samples        32971                       # Reads before turning the bus around for writes (Count)
system.mem_ctrl.rdPerTurnAround::mean    16426.405023                       # Reads before turning the bus around for writes (Count)
system.mem_ctrl.rdPerTurnAround::stdev   14856.674322                       # Reads before turning the bus around for writes (Count)
system.mem_ctrl.rdPerTurnAround::0-4095          1605      4.87%      4.87% # Reads before turning the bus around for writes (Count)
system.mem_ctrl.rdPerTurnAround::4096-8191        17633     53.48%     58.35% # Reads before turning the bus around for writes (Count)
system.mem_ctrl.rdPerTurnAround::8192-12287         2601      7.89%     66.24% # Reads before turning the bus around for writes (Count)
system.mem_ctrl.rdPerTurnAround::12288-16383          630      1.91%     68.15% # Reads before turning the bus around for writes (Count)
system.mem_ctrl.rdPerTurnAround::16384-20479          112      0.34%     68.49% # Reads before turning the bus around for writes (Count)
system.mem_ctrl.rdPerTurnAround::20480-24575          337      1.02%     69.51% # Reads before turning the bus around for writes (Count)
system.mem_ctrl.rdPerTurnAround::24576-28671         1603      4.86%     74.37% # Reads before turning the bus around for writes (Count)
system.mem_ctrl.rdPerTurnAround::28672-32767            4      0.01%     74.38% # Reads before turning the bus around for writes (Count)
system.mem_ctrl.rdPerTurnAround::32768-36863         1992      6.04%     80.43% # Reads before turning the bus around for writes (Count)
system.mem_ctrl.rdPerTurnAround::36864-40959         4957     15.03%     95.46% # Reads before turning the bus around for writes (Count)
system.mem_ctrl.rdPerTurnAround::40960-45055           94      0.29%     95.74% # Reads before turning the bus around for writes (Count)
system.mem_ctrl.rdPerTurnAround::45056-49151         1242      3.77%     99.51% # Reads before turning the bus around for writes (Count)
system.mem_ctrl.rdPerTurnAround::49152-53247          154      0.47%     99.98% # Reads before turning the bus around for writes (Count)
system.mem_ctrl.rdPerTurnAround::53248-57343            2      0.01%     99.98% # Reads before turning the bus around for writes (Count)
system.mem_ctrl.rdPerTurnAround::61440-65535            2      0.01%     99.99% # Reads before turning the bus around for writes (Count)
system.mem_ctrl.rdPerTurnAround::65536-69631            1      0.00%     99.99% # Reads before turning the bus around for writes (Count)
system.mem_ctrl.rdPerTurnAround::86016-90111            1      0.00%    100.00% # Reads before turning the bus around for writes (Count)
system.mem_ctrl.rdPerTurnAround::118784-122879            1      0.00%    100.00% # Reads before turning the bus around for writes (Count)
system.mem_ctrl.rdPerTurnAround::total          32971                       # Reads before turning the bus around for writes (Count)
system.mem_ctrl.wrPerTurnAround::samples        32971                       # Writes before turning the bus around for reads (Count)
system.mem_ctrl.wrPerTurnAround::mean       16.002578                       # Writes before turning the bus around for reads (Count)
system.mem_ctrl.wrPerTurnAround::gmean      16.002421                       # Writes before turning the bus around for reads (Count)
system.mem_ctrl.wrPerTurnAround::stdev       0.074049                       # Writes before turning the bus around for reads (Count)
system.mem_ctrl.wrPerTurnAround::16             32930     99.88%     99.88% # Writes before turning the bus around for reads (Count)
system.mem_ctrl.wrPerTurnAround::18                39      0.12%     99.99% # Writes before turning the bus around for reads (Count)
system.mem_ctrl.wrPerTurnAround::19                 1      0.00%    100.00% # Writes before turning the bus around for reads (Count)
system.mem_ctrl.wrPerTurnAround::20                 1      0.00%    100.00% # Writes before turning the bus around for reads (Count)
system.mem_ctrl.wrPerTurnAround::total          32971                       # Writes before turning the bus around for reads (Count)
system.mem_ctrl.bytesReadWrQ                575482624                       # Total number of bytes read from write queue (Byte)
system.mem_ctrl.bytesReadSys               4245028613                       # Total read bytes from the system interface side (Byte)
system.mem_ctrl.bytesWrittenSys             286744738                       # Total written bytes from the system interface side (Byte)
system.mem_ctrl.avgRdBWSys               143745238.70090109                       # Average system read bandwidth in Byte/s ((Byte/Second))
system.mem_ctrl.avgWrBWSys               9709755.70902173                       # Average system write bandwidth in Byte/s ((Byte/Second))
system.mem_ctrl.totGap                   29531611852000                       # Total gap between requests (Tick)
system.mem_ctrl.avgGap                       49941.82                       # Average gap between requests ((Tick/Count))
system.mem_ctrl.requestorReadBytes::cpu.inst   3690442544                       # Per-requestor bytes read from memory (Byte)
system.mem_ctrl.requestorReadBytes::cpu.data    494876839                       # Per-requestor bytes read from memory (Byte)
system.mem_ctrl.requestorWriteBytes::cpu.data      3564723                       # Per-requestor bytes write to memory (Byte)
system.mem_ctrl.requestorReadRate::cpu.inst 124965834.806079953909                       # Per-requestor bytes read from memory rate ((Byte/Second))
system.mem_ctrl.requestorReadRate::cpu.data 16757528.826014157385                       # Per-requestor bytes read from memory rate ((Byte/Second))
system.mem_ctrl.requestorWriteRate::cpu.data 120708.717243596169                       # Per-requestor bytes write to memory rate ((Byte/Second))
system.mem_ctrl.requestorReadAccesses::cpu.inst    461305318                       # Per-requestor read serviced memory accesses (Count)
system.mem_ctrl.requestorReadAccesses::cpu.data     89281675                       # Per-requestor read serviced memory accesses (Count)
system.mem_ctrl.requestorWriteAccesses::cpu.data     40733316                       # Per-requestor write serviced memory accesses (Count)
system.mem_ctrl.requestorReadTotalLat::cpu.inst 10009131543250                       # Per-requestor read total memory access latency (Tick)
system.mem_ctrl.requestorReadTotalLat::cpu.data 2086744406500                       # Per-requestor read total memory access latency (Tick)
system.mem_ctrl.requestorWriteTotalLat::cpu.data 849990285789250                       # Per-requestor write total memory access latency (Tick)
system.mem_ctrl.requestorReadAvgLat::cpu.inst     21697.41                       # Per-requestor read average memory access latency ((Tick/Count))
system.mem_ctrl.requestorReadAvgLat::cpu.data     23372.59                       # Per-requestor read average memory access latency ((Tick/Count))
system.mem_ctrl.requestorWriteAvgLat::cpu.data  20867200.84                       # Per-requestor write average memory access latency ((Tick/Count))
system.mem_ctrl.dram.bytesRead::cpu.inst   3690442544                       # Number of bytes read from this memory (Byte)
system.mem_ctrl.dram.bytesRead::cpu.data    554586069                       # Number of bytes read from this memory (Byte)
system.mem_ctrl.dram.bytesRead::total      4245028613                       # Number of bytes read from this memory (Byte)
system.mem_ctrl.dram.bytesInstRead::cpu.inst   3690442544                       # Number of instructions bytes read from this memory (Byte)
system.mem_ctrl.dram.bytesInstRead::total   3690442544                       # Number of instructions bytes read from this memory (Byte)
system.mem_ctrl.dram.bytesWritten::cpu.data    286744738                       # Number of bytes written to this memory (Byte)
system.mem_ctrl.dram.bytesWritten::total    286744738                       # Number of bytes written to this memory (Byte)
system.mem_ctrl.dram.numReads::cpu.inst     461305318                       # Number of read requests responded to by this memory (Count)
system.mem_ctrl.dram.numReads::cpu.data      89281675                       # Number of read requests responded to by this memory (Count)
system.mem_ctrl.dram.numReads::total        550586993                       # Number of read requests responded to by this memory (Count)
system.mem_ctrl.dram.numWrites::cpu.data     40733316                       # Number of write requests responded to by this memory (Count)
system.mem_ctrl.dram.numWrites::total        40733316                       # Number of write requests responded to by this memory (Count)
system.mem_ctrl.dram.bwRead::cpu.inst       124965835                       # Total read bandwidth from this memory ((Byte/Second))
system.mem_ctrl.dram.bwRead::cpu.data        18779404                       # Total read bandwidth from this memory ((Byte/Second))
system.mem_ctrl.dram.bwRead::total          143745239                       # Total read bandwidth from this memory ((Byte/Second))
system.mem_ctrl.dram.bwInstRead::cpu.inst    124965835                       # Instruction read bandwidth from this memory ((Byte/Second))
system.mem_ctrl.dram.bwInstRead::total      124965835                       # Instruction read bandwidth from this memory ((Byte/Second))
system.mem_ctrl.dram.bwWrite::cpu.data        9709756                       # Write bandwidth from this memory ((Byte/Second))
system.mem_ctrl.dram.bwWrite::total           9709756                       # Write bandwidth from this memory ((Byte/Second))
system.mem_ctrl.dram.bwTotal::cpu.inst      124965835                       # Total bandwidth to/from this memory ((Byte/Second))
system.mem_ctrl.dram.bwTotal::cpu.data       28489160                       # Total bandwidth to/from this memory ((Byte/Second))
system.mem_ctrl.dram.bwTotal::total         153454994                       # Total bandwidth to/from this memory ((Byte/Second))
system.mem_ctrl.dram.readBursts             541595077                       # Number of DRAM read bursts (Count)
system.mem_ctrl.dram.writeBursts               527621                       # Number of DRAM write bursts (Count)
system.mem_ctrl.dram.perBankRdBursts::0      69022624                       # Per bank write bursts (Count)
system.mem_ctrl.dram.perBankRdBursts::1     149496783                       # Per bank write bursts (Count)
system.mem_ctrl.dram.perBankRdBursts::2       2304626                       # Per bank write bursts (Count)
system.mem_ctrl.dram.perBankRdBursts::3      43515282                       # Per bank write bursts (Count)
system.mem_ctrl.dram.perBankRdBursts::4      24038526                       # Per bank write bursts (Count)
system.mem_ctrl.dram.perBankRdBursts::5      15712656                       # Per bank write bursts (Count)
system.mem_ctrl.dram.perBankRdBursts::6      60816601                       # Per bank write bursts (Count)
system.mem_ctrl.dram.perBankRdBursts::7      12229832                       # Per bank write bursts (Count)
system.mem_ctrl.dram.perBankRdBursts::8       4637555                       # Per bank write bursts (Count)
system.mem_ctrl.dram.perBankRdBursts::9       3032767                       # Per bank write bursts (Count)
system.mem_ctrl.dram.perBankRdBursts::10     12372652                       # Per bank write bursts (Count)
system.mem_ctrl.dram.perBankRdBursts::11     11032172                       # Per bank write bursts (Count)
system.mem_ctrl.dram.perBankRdBursts::12     55246063                       # Per bank write bursts (Count)
system.mem_ctrl.dram.perBankRdBursts::13     17389775                       # Per bank write bursts (Count)
system.mem_ctrl.dram.perBankRdBursts::14     32809333                       # Per bank write bursts (Count)
system.mem_ctrl.dram.perBankRdBursts::15     27937830                       # Per bank write bursts (Count)
system.mem_ctrl.dram.perBankWrBursts::0         77816                       # Per bank write bursts (Count)
system.mem_ctrl.dram.perBankWrBursts::1           458                       # Per bank write bursts (Count)
system.mem_ctrl.dram.perBankWrBursts::2           178                       # Per bank write bursts (Count)
system.mem_ctrl.dram.perBankWrBursts::3           152                       # Per bank write bursts (Count)
system.mem_ctrl.dram.perBankWrBursts::4           494                       # Per bank write bursts (Count)
system.mem_ctrl.dram.perBankWrBursts::5         17549                       # Per bank write bursts (Count)
system.mem_ctrl.dram.perBankWrBursts::6        417255                       # Per bank write bursts (Count)
system.mem_ctrl.dram.perBankWrBursts::7          2038                       # Per bank write bursts (Count)
system.mem_ctrl.dram.perBankWrBursts::8           289                       # Per bank write bursts (Count)
system.mem_ctrl.dram.perBankWrBursts::9             0                       # Per bank write bursts (Count)
system.mem_ctrl.dram.perBankWrBursts::10        10698                       # Per bank write bursts (Count)
system.mem_ctrl.dram.perBankWrBursts::11          247                       # Per bank write bursts (Count)
system.mem_ctrl.dram.perBankWrBursts::12            0                       # Per bank write bursts (Count)
system.mem_ctrl.dram.perBankWrBursts::13           54                       # Per bank write bursts (Count)
system.mem_ctrl.dram.perBankWrBursts::14          263                       # Per bank write bursts (Count)
system.mem_ctrl.dram.perBankWrBursts::15          130                       # Per bank write bursts (Count)
system.mem_ctrl.dram.totQLat             1940968256000                       # Total ticks spent queuing (Tick)
system.mem_ctrl.dram.totBusLat           2707975385000                       # Total ticks spent in databus transfers (Tick)
system.mem_ctrl.dram.totMemAccLat        12095875949750                       # Total ticks spent from burst creation until serviced by the DRAM (Tick)
system.mem_ctrl.dram.avgQLat                  3583.80                       # Average queueing delay per DRAM burst ((Tick/Count))
system.mem_ctrl.dram.avgBusLat                5000.00                       # Average bus latency per DRAM burst ((Tick/Count))
system.mem_ctrl.dram.avgMemAccLat            22333.80                       # Average memory access latency per DRAM burst ((Tick/Count))
system.mem_ctrl.dram.readRowHits            481883267                       # Number of row buffer hits during reads (Count)
system.mem_ctrl.dram.writeRowHits              453221                       # Number of row buffer hits during writes (Count)
system.mem_ctrl.dram.readRowHitRate             88.97                       # Row buffer hit rate for reads (Ratio)
system.mem_ctrl.dram.writeRowHitRate            85.90                       # Row buffer hit rate for writes (Ratio)
system.mem_ctrl.dram.bytesPerActivate::samples     59786208                       # Bytes accessed per row activation (Byte)
system.mem_ctrl.dram.bytesPerActivate::mean   580.332039                       # Bytes accessed per row activation (Byte)
system.mem_ctrl.dram.bytesPerActivate::gmean   360.708961                       # Bytes accessed per row activation (Byte)
system.mem_ctrl.dram.bytesPerActivate::stdev   419.439506                       # Bytes accessed per row activation (Byte)
system.mem_ctrl.dram.bytesPerActivate::0-127     13220957     22.11%     22.11% # Bytes accessed per row activation (Byte)
system.mem_ctrl.dram.bytesPerActivate::128-255      7552223     12.63%     34.75% # Bytes accessed per row activation (Byte)
system.mem_ctrl.dram.bytesPerActivate::256-383      4248509      7.11%     41.85% # Bytes accessed per row activation (Byte)
system.mem_ctrl.dram.bytesPerActivate::384-511      3185120      5.33%     47.18% # Bytes accessed per row activation (Byte)
system.mem_ctrl.dram.bytesPerActivate::512-639      1883884      3.15%     50.33% # Bytes accessed per row activation (Byte)
system.mem_ctrl.dram.bytesPerActivate::640-767      2207922      3.69%     54.02% # Bytes accessed per row activation (Byte)
system.mem_ctrl.dram.bytesPerActivate::768-895      1516689      2.54%     56.56% # Bytes accessed per row activation (Byte)
system.mem_ctrl.dram.bytesPerActivate::896-1023      1306189      2.18%     58.75% # Bytes accessed per row activation (Byte)
system.mem_ctrl.dram.bytesPerActivate::1024-1151     24664715     41.25%    100.00% # Bytes accessed per row activation (Byte)
system.mem_ctrl.dram.bytesPerActivate::total     59786208                       # Bytes accessed per row activation (Byte)
system.mem_ctrl.dram.bytesRead            34662084928                       # Total bytes read (Byte)
system.mem_ctrl.dram.bytesWritten            33767744                       # Total bytes written (Byte)
system.mem_ctrl.dram.avgRdBW              1173.728171                       # Average DRAM read bandwidth in MiBytes/s ((Byte/Second))
system.mem_ctrl.dram.avgWrBW                 1.143444                       # Average DRAM write bandwidth in MiBytes/s ((Byte/Second))
system.mem_ctrl.dram.peakBW                  12800.00                       # Theoretical peak bandwidth in MiByte/s ((Byte/Second))
system.mem_ctrl.dram.busUtil                     9.18                       # Data bus utilization in percentage (Ratio)
system.mem_ctrl.dram.busUtilRead                 9.17                       # Data bus utilization in percentage for reads (Ratio)
system.mem_ctrl.dram.busUtilWrite                0.01                       # Data bus utilization in percentage for writes (Ratio)
system.mem_ctrl.dram.pageHitRate                88.97                       # Row buffer hit rate, read and write combined (Ratio)
system.mem_ctrl.dram.power_state.pwrStateResidencyTicks::UNDEFINED 29531611978000                       # Cumulative time (in ticks) in various power states (Tick)
system.mem_ctrl.dram.rank0.actEnergy     288379687680                       # Energy for activate commands per rank (pJ) (Joule)
system.mem_ctrl.dram.rank0.preEnergy     153277435245                       # Energy for precharge commands per rank (pJ) (Joule)
system.mem_ctrl.dram.rank0.readEnergy    2692757680200                       # Energy for read commands per rank (pJ) (Joule)
system.mem_ctrl.dram.rank0.writeEnergy     2693206800                       # Energy for write commands per rank (pJ) (Joule)
system.mem_ctrl.dram.rank0.refreshEnergy 2331200445600.000488                       # Energy for refresh commands per rank (pJ) (Joule)
system.mem_ctrl.dram.rank0.actBackEnergy 13150395380160                       # Energy for active background per rank (pJ) (Joule)
system.mem_ctrl.dram.rank0.preBackEnergy 266121837600                       # Energy for precharge background per rank (pJ) (Joule)
system.mem_ctrl.dram.rank0.actPowerDownEnergy            0                       # Energy for active power-down per rank (pJ) (Joule)
system.mem_ctrl.dram.rank0.prePowerDownEnergy            0                       # Energy for precharge power-down per rank (pJ) (Joule)
system.mem_ctrl.dram.rank0.selfRefreshEnergy            0                       # Energy for self refresh per rank (pJ) (Joule)
system.mem_ctrl.dram.rank0.totalEnergy   18884825673285                       # Total energy per rank (pJ) (Joule)
system.mem_ctrl.dram.rank0.averagePower    639.478322                       # Core power per rank (mW) (Watt)
system.mem_ctrl.dram.rank0.totalIdleTime            0                       # Total Idle time Per DRAM Rank (Tick)
system.mem_ctrl.dram.rank0.pwrStateTime::IDLE 566910496000                       # Time in different power states (Tick)
system.mem_ctrl.dram.rank0.pwrStateTime::REF 986125400000                       # Time in different power states (Tick)
system.mem_ctrl.dram.rank0.pwrStateTime::SREF            0                       # Time in different power states (Tick)
system.mem_ctrl.dram.rank0.pwrStateTime::PRE_PDN            0                       # Time in different power states (Tick)
system.mem_ctrl.dram.rank0.pwrStateTime::ACT 27978576082000                       # Time in different power states (Tick)
system.mem_ctrl.dram.rank0.pwrStateTime::ACT_PDN            0                       # Time in different power states (Tick)
system.mem_ctrl.dram.rank1.actEnergy     138493851720                       # Energy for activate commands per rank (pJ) (Joule)
system.mem_ctrl.dram.rank1.preEnergy      73611224115                       # Energy for precharge commands per rank (pJ) (Joule)
system.mem_ctrl.dram.rank1.readEnergy    1174231169580                       # Energy for read commands per rank (pJ) (Joule)
system.mem_ctrl.dram.rank1.writeEnergy       60974820                       # Energy for write commands per rank (pJ) (Joule)
system.mem_ctrl.dram.rank1.refreshEnergy 2331200445600.000488                       # Energy for refresh commands per rank (pJ) (Joule)
system.mem_ctrl.dram.rank1.actBackEnergy 8865151532820                       # Energy for active background per rank (pJ) (Joule)
system.mem_ctrl.dram.rank1.preBackEnergy 3874748235360                       # Energy for precharge background per rank (pJ) (Joule)
system.mem_ctrl.dram.rank1.actPowerDownEnergy            0                       # Energy for active power-down per rank (pJ) (Joule)
system.mem_ctrl.dram.rank1.prePowerDownEnergy            0                       # Energy for precharge power-down per rank (pJ) (Joule)
system.mem_ctrl.dram.rank1.selfRefreshEnergy            0                       # Energy for self refresh per rank (pJ) (Joule)
system.mem_ctrl.dram.rank1.totalEnergy   16457497434015                       # Total energy per rank (pJ) (Joule)
system.mem_ctrl.dram.rank1.averagePower    557.284088                       # Core power per rank (mW) (Watt)
system.mem_ctrl.dram.rank1.totalIdleTime            0                       # Total Idle time Per DRAM Rank (Tick)
system.mem_ctrl.dram.rank1.pwrStateTime::IDLE 9963724613500                       # Time in different power states (Tick)
system.mem_ctrl.dram.rank1.pwrStateTime::REF 986125400000                       # Time in different power states (Tick)
system.mem_ctrl.dram.rank1.pwrStateTime::SREF            0                       # Time in different power states (Tick)
system.mem_ctrl.dram.rank1.pwrStateTime::PRE_PDN            0                       # Time in different power states (Tick)
system.mem_ctrl.dram.rank1.pwrStateTime::ACT 18581761964500                       # Time in different power states (Tick)
system.mem_ctrl.dram.rank1.pwrStateTime::ACT_PDN            0                       # Time in different power states (Tick)
system.mem_ctrl.power_state.pwrStateResidencyTicks::UNDEFINED 29531611978000                       # Cumulative time (in ticks) in various power states (Tick)
system.membus.transDist::ReadReq            550586993                       # Transaction distribution (Count)
system.membus.transDist::ReadResp           550586993                       # Transaction distribution (Count)
system.membus.transDist::WriteReq            40733316                       # Transaction distribution (Count)
system.membus.transDist::WriteResp           40733316                       # Transaction distribution (Count)
system.membus.pktCount_system.cpu.icache_port::system.mem_ctrl.port    922610636                       # Packet count per connected requestor and responder (Count)
system.membus.pktCount_system.cpu.icache_port::total    922610636                       # Packet count per connected requestor and responder (Count)
system.membus.pktCount_system.cpu.dcache_port::system.mem_ctrl.port    260029982                       # Packet count per connected requestor and responder (Count)
system.membus.pktCount_system.cpu.dcache_port::total    260029982                       # Packet count per connected requestor and responder (Count)
system.membus.pktCount::total              1182640618                       # Packet count per connected requestor and responder (Count)
system.membus.pktSize_system.cpu.icache_port::system.mem_ctrl.port   3690442544                       # Cumulative packet size per connected requestor and responder (Byte)
system.membus.pktSize_system.cpu.icache_port::total   3690442544                       # Cumulative packet size per connected requestor and responder (Byte)
system.membus.pktSize_system.cpu.dcache_port::system.mem_ctrl.port    841330807                       # Cumulative packet size per connected requestor and responder (Byte)
system.membus.pktSize_system.cpu.dcache_port::total    841330807                       # Cumulative packet size per connected requestor and responder (Byte)
system.membus.pktSize::total               4531773351                       # Cumulative packet size per connected requestor and responder (Byte)
system.membus.snoops                                0                       # Total snoops (Count)
system.membus.snoopTraffic                          0                       # Total snoop traffic (Byte)
system.membus.snoopFanout::samples          591320309                       # Request fanout histogram (Count)
system.membus.snoopFanout::mean                     0                       # Request fanout histogram (Count)
system.membus.snoopFanout::stdev                    0                       # Request fanout histogram (Count)
system.membus.snoopFanout::underflows               0      0.00%      0.00% # Request fanout histogram (Count)
system.membus.snoopFanout::0                591320309    100.00%    100.00% # Request fanout histogram (Count)
system.membus.snoopFanout::1                        0      0.00%    100.00% # Request fanout histogram (Count)
system.membus.snoopFanout::overflows                0      0.00%    100.00% # Request fanout histogram (Count)
system.membus.snoopFanout::min_value                0                       # Request fanout histogram (Count)
system.membus.snoopFanout::max_value                0                       # Request fanout histogram (Count)
system.membus.snoopFanout::total            591320309                       # Request fanout histogram (Count)
system.membus.power_state.pwrStateResidencyTicks::UNDEFINED 29531611978000                       # Cumulative time (in ticks) in various power states (Tick)
system.membus.reqLayer2.occupancy        632053625000                       # Layer occupancy (ticks) (Tick)
system.membus.reqLayer2.utilization               0.0                       # Layer utilization (Ratio)
system.membus.respLayer0.occupancy       1047682872750                       # Layer occupancy (ticks) (Tick)
system.membus.respLayer0.utilization              0.0                       # Layer utilization (Ratio)
system.membus.respLayer1.occupancy       247459821500                       # Layer occupancy (ticks) (Tick)
system.membus.respLayer1.utilization              0.0                       # Layer utilization (Ratio)
system.membus.snoop_filter.totRequests              0                       # Total number of requests made to the snoop filter. (Count)
system.membus.snoop_filter.hitSingleRequests            0                       # Number of requests hitting in the snoop filter with a single holder of the requested data. (Count)
system.membus.snoop_filter.hitMultiRequests            0                       # Number of requests hitting in the snoop filter with multiple (>1) holders of the requested data. (Count)
system.membus.snoop_filter.totSnoops                0                       # Total number of snoops made to the snoop filter. (Count)
system.membus.snoop_filter.hitSingleSnoops            0                       # Number of snoops hitting in the snoop filter with a single holder of the requested data. (Count)
system.membus.snoop_filter.hitMultiSnoops            0                       # Number of snoops hitting in the snoop filter with multiple (>1) holders of the requested data. (Count)
system.workload.inst.arm                            0                       # number of arm instructions executed (Count)
system.workload.inst.quiesce                        0                       # number of quiesce instructions executed (Count)

---------- End Simulation Statistics   ----------
