
---------- Begin Simulation Statistics ----------
simSeconds                                  29.495781                       # Number of seconds simulated (Second)
simTicks                                 29495780621000                       # Number of ticks simulated (Tick)
finalTick                                29495780621000                       # Number of ticks from beginning of simulation (restored from checkpoints and never reset) (Tick)
simFreq                                  1000000000000                       # The number of ticks per simulated second ((Tick/Second))
hostSeconds                                   1672.51                       # Real time elapsed on the host (Second)
hostTickRate                              17635602404                       # The number of ticks simulated per host second (ticks/s) ((Tick/Second))
hostMemory                                    1175740                       # Number of bytes of host memory used (Byte)
simInsts                                    354685263                       # Number of instructions simulated (Count)
simOps                                      663765705                       # Number of ops (including micro ops) simulated (Count)
hostInstRate                                   212067                       # Simulator instruction rate (inst/s) ((Count/Second))
hostOpRate                                     396867                       # Simulator op (including micro ops) rate (op/s) ((Count/Second))
system.clk_domain.clock                          1000                       # Clock period in ticks (Tick)
system.clk_domain.voltage_domain.voltage            1                       # Voltage in Volts (Volt)
system.cpu.numCycles                      29495780621                       # Number of cpu cycles simulated (Cycle)
system.cpu.numWorkItemsStarted                      0                       # Number of work items this cpu started (Count)
system.cpu.numWorkItemsCompleted                    0                       # Number of work items this cpu completed (Count)
system.cpu.exec_context.thread_0.numInsts    354685263                       # Number of instructions committed (Count)
system.cpu.exec_context.thread_0.numOps     663765705                       # Number of ops (including micro ops) committed (Count)
system.cpu.exec_context.thread_0.numIntAluAccesses    585725754                       # Number of integer alu accesses (Count)
system.cpu.exec_context.thread_0.numFpAluAccesses     89586688                       # Number of float alu accesses (Count)
system.cpu.exec_context.thread_0.numVecAluAccesses            0                       # Number of vector alu accesses (Count)
system.cpu.exec_context.thread_0.numCallsReturns     11373680                       # Number of times a function call or return occured (Count)
system.cpu.exec_context.thread_0.numCondCtrlInsts     45275621                       # Number of instructions that are conditional controls (Count)
system.cpu.exec_context.thread_0.numIntInsts    585725754                       # Number of integer instructions (Count)
system.cpu.exec_context.thread_0.numFpInsts     89586688                       # Number of float instructions (Count)
system.cpu.exec_context.thread_0.numVecInsts            0                       # Number of vector instructions (Count)
system.cpu.exec_context.thread_0.numIntRegReads    909984274                       # Number of times the integer registers were read (Count)
system.cpu.exec_context.thread_0.numIntRegWrites    465924820                       # Number of times the integer registers were written (Count)
system.cpu.exec_context.thread_0.numFpRegReads    175866233                       # Number of times the floating registers were read (Count)
system.cpu.exec_context.thread_0.numFpRegWrites     88439522                       # Number of times the floating registers were written (Count)
system.cpu.exec_context.thread_0.numVecRegReads            0                       # Number of times the vector registers were read (Count)
system.cpu.exec_context.thread_0.numVecRegWrites            0                       # Number of times the vector registers were written (Count)
system.cpu.exec_context.thread_0.numVecPredRegReads            0                       # Number of times the predicate registers were read (Count)
system.cpu.exec_context.thread_0.numVecPredRegWrites            0                       # Number of times the predicate registers were written (Count)
system.cpu.exec_context.thread_0.numCCRegReads    332341636                       # Number of times the CC registers were read (Count)
system.cpu.exec_context.thread_0.numCCRegWrites    167271012                       # Number of times the CC registers were written (Count)
system.cpu.exec_context.thread_0.numMiscRegReads    257294260                       # Number of times the Misc registers were read (Count)
system.cpu.exec_context.thread_0.numMiscRegWrites         1035                       # Number of times the Misc registers were written (Count)
system.cpu.exec_context.thread_0.numMemRefs    129968039                       # Number of memory refs (Count)
system.cpu.exec_context.thread_0.numLoadInsts     89260944                       # Number of load instructions (Count)
system.cpu.exec_context.thread_0.numStoreInsts     40707095                       # Number of store instructions (Count)
system.cpu.exec_context.thread_0.numIdleCycles     0.000999                       # Number of idle cycles (Cycle)
system.cpu.exec_context.thread_0.numBusyCycles 29495780620.999001                       # Number of busy cycles (Cycle)
system.cpu.exec_context.thread_0.notIdleFraction     1.000000                       # Percentage of non-idle cycles (Ratio)
system.cpu.exec_context.thread_0.idleFraction     0.000000                       # Percentage of idle cycles (Ratio)
system.cpu.exec_context.thread_0.numBranches     64359350                       # Number of branches fetched (Count)
system.cpu.exec_context.thread_0.statExecutedInstType::No_OpClass      5286016      0.80%      0.80% # Class of executed instruction. (Count)
system.cpu.exec_context.thread_0.statExecutedInstType::IntAlu    439724815     66.25%     67.04% # Class of executed instruction. (Count)
system.cpu.exec_context.thread_0.statExecutedInstType::IntMult        58455      0.01%     67.05% # Class of executed instruction. (Count)
system.cpu.exec_context.thread_0.statExecutedInstType::IntDiv       710346      0.11%     67.16% # Class of executed instruction. (Count)
system.cpu.exec_context.thread_0.statExecutedInstType::FloatAdd       453063      0.07%     67.23% # Class of executed instruction. (Count)
system.cpu.exec_context.thread_0.statExecutedInstType::FloatCmp            0      0.00%     67.23% # Class of executed instruction. (Count)
system.cpu.exec_context.thread_0.statExecutedInstType::FloatCvt         1840      0.00%     67.23% # Class of executed instruction. (Count)
system.cpu.exec_context.thread_0.statExecutedInstType::FloatMult            0      0.00%     67.23% # Class of executed instruction. (Count)
system.cpu.exec_context.thread_0.statExecutedInstType::FloatMultAcc            0      0.00%     67.23% # Class of executed instruction. (Count)
system.cpu.exec_context.thread_0.statExecutedInstType::FloatDiv            0      0.00%     67.23% # Class of executed instruction. (Count)
system.cpu.exec_context.thread_0.statExecutedInstType::FloatMisc            0      0.00%     67.23% # Class of executed instruction. (Count)
system.cpu.exec_context.thread_0.statExecutedInstType::FloatSqrt            0      0.00%     67.23% # Class of executed instruction. (Count)
system.cpu.exec_context.thread_0.statExecutedInstType::SimdAdd       240024      0.04%     67.26% # Class of executed instruction. (Count)
system.cpu.exec_context.thread_0.statExecutedInstType::SimdAddAcc            0      0.00%     67.26% # Class of executed instruction. (Count)
system.cpu.exec_context.thread_0.statExecutedInstType::SimdAlu     31181028      4.70%     71.96% # Class of executed instruction. (Count)
system.cpu.exec_context.thread_0.statExecutedInstType::SimdCmp        11706      0.00%     71.96% # Class of executed instruction. (Count)
system.cpu.exec_context.thread_0.statExecutedInstType::SimdCvt       947366      0.14%     72.11% # Class of executed instruction. (Count)
system.cpu.exec_context.thread_0.statExecutedInstType::SimdMisc     16493039      2.48%     74.59% # Class of executed instruction. (Count)
system.cpu.exec_context.thread_0.statExecutedInstType::SimdMult            0      0.00%     74.59% # Class of executed instruction. (Count)
system.cpu.exec_context.thread_0.statExecutedInstType::SimdMultAcc            0      0.00%     74.59% # Class of executed instruction. (Count)
system.cpu.exec_context.thread_0.statExecutedInstType::SimdShift            0      0.00%     74.59% # Class of executed instruction. (Count)
system.cpu.exec_context.thread_0.statExecutedInstType::SimdShiftAcc            0      0.00%     74.59% # Class of executed instruction. (Count)
system.cpu.exec_context.thread_0.statExecutedInstType::SimdDiv            0      0.00%     74.59% # Class of executed instruction. (Count)
system.cpu.exec_context.thread_0.statExecutedInstType::SimdSqrt            0      0.00%     74.59% # Class of executed instruction. (Count)
system.cpu.exec_context.thread_0.statExecutedInstType::SimdFloatAdd      7680000      1.16%     75.75% # Class of executed instruction. (Count)
system.cpu.exec_context.thread_0.statExecutedInstType::SimdFloatAlu            0      0.00%     75.75% # Class of executed instruction. (Count)
system.cpu.exec_context.thread_0.statExecutedInstType::SimdFloatCmp            0      0.00%     75.75% # Class of executed instruction. (Count)
system.cpu.exec_context.thread_0.statExecutedInstType::SimdFloatCvt     23330000      3.51%     79.26% # Class of executed instruction. (Count)
system.cpu.exec_context.thread_0.statExecutedInstType::SimdFloatDiv            0      0.00%     79.26% # Class of executed instruction. (Count)
system.cpu.exec_context.thread_0.statExecutedInstType::SimdFloatMisc            0      0.00%     79.26% # Class of executed instruction. (Count)
system.cpu.exec_context.thread_0.statExecutedInstType::SimdFloatMult      7680411      1.16%     80.42% # Class of executed instruction. (Count)
system.cpu.exec_context.thread_0.statExecutedInstType::SimdFloatMultAcc            0      0.00%     80.42% # Class of executed instruction. (Count)
system.cpu.exec_context.thread_0.statExecutedInstType::SimdFloatSqrt            0      0.00%     80.42% # Class of executed instruction. (Count)
system.cpu.exec_context.thread_0.statExecutedInstType::SimdReduceAdd            0      0.00%     80.42% # Class of executed instruction. (Count)
system.cpu.exec_context.thread_0.statExecutedInstType::SimdReduceAlu            0      0.00%     80.42% # Class of executed instruction. (Count)
system.cpu.exec_context.thread_0.statExecutedInstType::SimdReduceCmp            0      0.00%     80.42% # Class of executed instruction. (Count)
system.cpu.exec_context.thread_0.statExecutedInstType::SimdFloatReduceAdd            0      0.00%     80.42% # Class of executed instruction. (Count)
system.cpu.exec_context.thread_0.statExecutedInstType::SimdFloatReduceCmp            0      0.00%     80.42% # Class of executed instruction. (Count)
system.cpu.exec_context.thread_0.statExecutedInstType::SimdAes            0      0.00%     80.42% # Class of executed instruction. (Count)
system.cpu.exec_context.thread_0.statExecutedInstType::SimdAesMix            0      0.00%     80.42% # Class of executed instruction. (Count)
system.cpu.exec_context.thread_0.statExecutedInstType::SimdSha1Hash            0      0.00%     80.42% # Class of executed instruction. (Count)
system.cpu.exec_context.thread_0.statExecutedInstType::SimdSha1Hash2            0      0.00%     80.42% # Class of executed instruction. (Count)
system.cpu.exec_context.thread_0.statExecutedInstType::SimdSha256Hash            0      0.00%     80.42% # Class of executed instruction. (Count)
system.cpu.exec_context.thread_0.statExecutedInstType::SimdSha256Hash2            0      0.00%     80.42% # Class of executed instruction. (Count)
system.cpu.exec_context.thread_0.statExecutedInstType::SimdShaSigma2            0      0.00%     80.42% # Class of executed instruction. (Count)
system.cpu.exec_context.thread_0.statExecutedInstType::SimdShaSigma3            0      0.00%     80.42% # Class of executed instruction. (Count)
system.cpu.exec_context.thread_0.statExecutedInstType::SimdPredAlu            0      0.00%     80.42% # Class of executed instruction. (Count)
system.cpu.exec_context.thread_0.statExecutedInstType::MemRead     87909013     13.24%     93.66% # Class of executed instruction. (Count)
system.cpu.exec_context.thread_0.statExecutedInstType::MemWrite     40541320      6.11%     99.77% # Class of executed instruction. (Count)
system.cpu.exec_context.thread_0.statExecutedInstType::FloatMemRead      1351931      0.20%     99.98% # Class of executed instruction. (Count)
system.cpu.exec_context.thread_0.statExecutedInstType::FloatMemWrite       165775      0.02%    100.00% # Class of executed instruction. (Count)
system.cpu.exec_context.thread_0.statExecutedInstType::IprAccess            0      0.00%    100.00% # Class of executed instruction. (Count)
system.cpu.exec_context.thread_0.statExecutedInstType::InstPrefetch            0      0.00%    100.00% # Class of executed instruction. (Count)
system.cpu.exec_context.thread_0.statExecutedInstType::total    663766148                       # Class of executed instruction. (Count)
system.cpu.interrupts.clk_domain.clock          16000                       # Clock period in ticks (Tick)
system.cpu.mmu.dtb.rdAccesses                89261774                       # TLB accesses on read requests (Count)
system.cpu.mmu.dtb.wrAccesses                40715833                       # TLB accesses on write requests (Count)
system.cpu.mmu.dtb.rdMisses                      1640                       # TLB misses on read requests (Count)
system.cpu.mmu.dtb.wrMisses                       104                       # TLB misses on write requests (Count)
system.cpu.mmu.dtb.walker.power_state.pwrStateResidencyTicks::UNDEFINED 29495780621000                       # Cumulative time (in ticks) in various power states (Tick)
system.cpu.mmu.itb.rdAccesses                       0                       # TLB accesses on read requests (Count)
system.cpu.mmu.itb.wrAccesses               461221709                       # TLB accesses on write requests (Count)
system.cpu.mmu.itb.rdMisses                         0                       # TLB misses on read requests (Count)
system.cpu.mmu.itb.wrMisses                       466                       # TLB misses on write requests (Count)
system.cpu.mmu.itb.walker.power_state.pwrStateResidencyTicks::UNDEFINED 29495780621000                       # Cumulative time (in ticks) in various power states (Tick)
system.cpu.power_state.pwrStateResidencyTicks::ON 29495780621000                       # Cumulative time (in ticks) in various power states (Tick)
system.cpu.thread_0.numInsts                        0                       # Number of Instructions committed (Count)
system.cpu.thread_0.numOps                          0                       # Number of Ops committed (Count)
system.cpu.thread_0.numMemRefs                      0                       # Number of Memory References (Count)
system.cpu.workload.numSyscalls                   188                       # Number of system calls (Count)
system.mem_ctrl.avgPriority_cpu.inst::samples 461221569.00                       # Average QoS priority value for accepted requests (Count)
system.mem_ctrl.avgPriority_cpu.data::samples  79847593.00                       # Average QoS priority value for accepted requests (Count)
system.mem_ctrl.priorityMinLatency       0.000000018750                       # per QoS priority minimum request to response latency (Second)
system.mem_ctrl.priorityMaxLatency       0.043228854250                       # per QoS priority maximum request to response latency (Second)
system.mem_ctrl.numReadWriteTurnArounds         30665                       # Number of turnarounds from READ to WRITE (Count)
system.mem_ctrl.numWriteReadTurnArounds         30665                       # Number of turnarounds from WRITE to READ (Count)
system.mem_ctrl.numStayReadState           1129417647                       # Number of times bus staying in READ state (Count)
system.mem_ctrl.numStayWriteState              460753                       # Number of times bus staying in WRITE state (Count)
system.mem_ctrl.readReqs                    550483120                       # Number of read requests accepted (Count)
system.mem_ctrl.writeReqs                    40715801                       # Number of write requests accepted (Count)
system.mem_ctrl.readBursts                  550483120                       # Number of controller read bursts, including those serviced by the write queue (Count)
system.mem_ctrl.writeBursts                  40715801                       # Number of controller write bursts, including those merged in the write queue (Count)
system.mem_ctrl.servicedByWrQ                 9904679                       # Number of controller read bursts serviced by the write queue (Count)
system.mem_ctrl.mergedWrBursts               40225080                       # Number of controller write bursts merged with an existing one (Count)
system.mem_ctrl.neitherReadNorWriteReqs             0                       # Number of requests that are neither read nor write (Count)
system.mem_ctrl.avgRdQLen                        1.00                       # Average read queue length when enqueuing ((Count/Tick))
system.mem_ctrl.avgWrQLen                       29.43                       # Average write queue length when enqueuing ((Count/Tick))
system.mem_ctrl.numRdRetry                          0                       # Number of times read queue was full causing retry (Count)
system.mem_ctrl.numWrRetry                          0                       # Number of times write queue was full causing retry (Count)
system.mem_ctrl.readPktSize::0                5879765                       # Read request sizes (log2) (Count)
system.mem_ctrl.readPktSize::1               15518397                       # Read request sizes (log2) (Count)
system.mem_ctrl.readPktSize::2                6339156                       # Read request sizes (log2) (Count)
system.mem_ctrl.readPktSize::3              522745802                       # Read request sizes (log2) (Count)
system.mem_ctrl.readPktSize::4                      0                       # Read request sizes (log2) (Count)
system.mem_ctrl.readPktSize::5                      0                       # Read request sizes (log2) (Count)
system.mem_ctrl.readPktSize::6                      0                       # Read request sizes (log2) (Count)
system.mem_ctrl.writePktSize::0               3010892                       # Write request sizes (log2) (Count)
system.mem_ctrl.writePktSize::1                319982                       # Write request sizes (log2) (Count)
system.mem_ctrl.writePktSize::2               4008161                       # Write request sizes (log2) (Count)
system.mem_ctrl.writePktSize::3              33376766                       # Write request sizes (log2) (Count)
system.mem_ctrl.writePktSize::4                     0                       # Write request sizes (log2) (Count)
system.mem_ctrl.writePktSize::5                     0                       # Write request sizes (log2) (Count)
system.mem_ctrl.writePktSize::6                     0                       # Write request sizes (log2) (Count)
system.mem_ctrl.rdQLenPdf::0                540577619                       # What read queue length does an incoming req see (Count)
system.mem_ctrl.rdQLenPdf::1                      822                       # What read queue length does an incoming req see (Count)
system.mem_ctrl.rdQLenPdf::2                        0                       # What read queue length does an incoming req see (Count)
system.mem_ctrl.rdQLenPdf::3                        0                       # What read queue length does an incoming req see (Count)
system.mem_ctrl.rdQLenPdf::4                        0                       # What read queue length does an incoming req see (Count)
system.mem_ctrl.rdQLenPdf::5                        0                       # What read queue length does an incoming req see (Count)
system.mem_ctrl.rdQLenPdf::6                        0                       # What read queue length does an incoming req see (Count)
system.mem_ctrl.rdQLenPdf::7                        0                       # What read queue length does an incoming req see (Count)
system.mem_ctrl.rdQLenPdf::8                        0                       # What read queue length does an incoming req see (Count)
system.mem_ctrl.rdQLenPdf::9                        0                       # What read queue length does an incoming req see (Count)
system.mem_ctrl.rdQLenPdf::10                       0                       # What read queue length does an incoming req see (Count)
system.mem_ctrl.rdQLenPdf::11                       0                       # What read queue length does an incoming req see (Count)
system.mem_ctrl.rdQLenPdf::12                       0                       # What read queue length does an incoming req see (Count)
system.mem_ctrl.rdQLenPdf::13                       0                       # What read queue length does an incoming req see (Count)
system.mem_ctrl.rdQLenPdf::14                       0                       # What read queue length does an incoming req see (Count)
system.mem_ctrl.rdQLenPdf::15                       0                       # What read queue length does an incoming req see (Count)
system.mem_ctrl.rdQLenPdf::16                       0                       # What read queue length does an incoming req see (Count)
system.mem_ctrl.rdQLenPdf::17                       0                       # What read queue length does an incoming req see (Count)
system.mem_ctrl.rdQLenPdf::18                       0                       # What read queue length does an incoming req see (Count)
system.mem_ctrl.rdQLenPdf::19                       0                       # What read queue length does an incoming req see (Count)
system.mem_ctrl.rdQLenPdf::20                       0                       # What read queue length does an incoming req see (Count)
system.mem_ctrl.rdQLenPdf::21                       0                       # What read queue length does an incoming req see (Count)
system.mem_ctrl.rdQLenPdf::22                       0                       # What read queue length does an incoming req see (Count)
system.mem_ctrl.rdQLenPdf::23                       0                       # What read queue length does an incoming req see (Count)
system.mem_ctrl.rdQLenPdf::24                       0                       # What read queue length does an incoming req see (Count)
system.mem_ctrl.rdQLenPdf::25                       0                       # What read queue length does an incoming req see (Count)
system.mem_ctrl.rdQLenPdf::26                       0                       # What read queue length does an incoming req see (Count)
system.mem_ctrl.rdQLenPdf::27                       0                       # What read queue length does an incoming req see (Count)
system.mem_ctrl.rdQLenPdf::28                       0                       # What read queue length does an incoming req see (Count)
system.mem_ctrl.rdQLenPdf::29                       0                       # What read queue length does an incoming req see (Count)
system.mem_ctrl.rdQLenPdf::30                       0                       # What read queue length does an incoming req see (Count)
system.mem_ctrl.rdQLenPdf::31                       0                       # What read queue length does an incoming req see (Count)
system.mem_ctrl.wrQLenPdf::0                        1                       # What write queue length does an incoming req see (Count)
system.mem_ctrl.wrQLenPdf::1                        1                       # What write queue length does an incoming req see (Count)
system.mem_ctrl.wrQLenPdf::2                        1                       # What write queue length does an incoming req see (Count)
system.mem_ctrl.wrQLenPdf::3                        1                       # What write queue length does an incoming req see (Count)
system.mem_ctrl.wrQLenPdf::4                        1                       # What write queue length does an incoming req see (Count)
system.mem_ctrl.wrQLenPdf::5                        1                       # What write queue length does an incoming req see (Count)
system.mem_ctrl.wrQLenPdf::6                        1                       # What write queue length does an incoming req see (Count)
system.mem_ctrl.wrQLenPdf::7                        1                       # What write queue length does an incoming req see (Count)
system.mem_ctrl.wrQLenPdf::8                        1                       # What write queue length does an incoming req see (Count)
system.mem_ctrl.wrQLenPdf::9                        1                       # What write queue length does an incoming req see (Count)
system.mem_ctrl.wrQLenPdf::10                       1                       # What write queue length does an incoming req see (Count)
system.mem_ctrl.wrQLenPdf::11                       1                       # What write queue length does an incoming req see (Count)
system.mem_ctrl.wrQLenPdf::12                       1                       # What write queue length does an incoming req see (Count)
system.mem_ctrl.wrQLenPdf::13                       1                       # What write queue length does an incoming req see (Count)
system.mem_ctrl.wrQLenPdf::14                       1                       # What write queue length does an incoming req see (Count)
system.mem_ctrl.wrQLenPdf::15                      28                       # What write queue length does an incoming req see (Count)
system.mem_ctrl.wrQLenPdf::16                      28                       # What write queue length does an incoming req see (Count)
system.mem_ctrl.wrQLenPdf::17                   30666                       # What write queue length does an incoming req see (Count)
system.mem_ctrl.wrQLenPdf::18                   30666                       # What write queue length does an incoming req see (Count)
system.mem_ctrl.wrQLenPdf::19                   30666                       # What write queue length does an incoming req see (Count)
system.mem_ctrl.wrQLenPdf::20                   30666                       # What write queue length does an incoming req see (Count)
system.mem_ctrl.wrQLenPdf::21                   30666                       # What write queue length does an incoming req see (Count)
system.mem_ctrl.wrQLenPdf::22                   30666                       # What write queue length does an incoming req see (Count)
system.mem_ctrl.wrQLenPdf::23                   30666                       # What write queue length does an incoming req see (Count)
system.mem_ctrl.wrQLenPdf::24                   30666                       # What write queue length does an incoming req see (Count)
system.mem_ctrl.wrQLenPdf::25                   30666                       # What write queue length does an incoming req see (Count)
system.mem_ctrl.wrQLenPdf::26                   30666                       # What write queue length does an incoming req see (Count)
system.mem_ctrl.wrQLenPdf::27                   30665                       # What write queue length does an incoming req see (Count)
system.mem_ctrl.wrQLenPdf::28                   30665                       # What write queue length does an incoming req see (Count)
system.mem_ctrl.wrQLenPdf::29                   30665                       # What write queue length does an incoming req see (Count)
system.mem_ctrl.wrQLenPdf::30                   30665                       # What write queue length does an incoming req see (Count)
system.mem_ctrl.wrQLenPdf::31                   30665                       # What write queue length does an incoming req see (Count)
system.mem_ctrl.wrQLenPdf::32                   30665                       # What write queue length does an incoming req see (Count)
system.mem_ctrl.wrQLenPdf::33                       0                       # What write queue length does an incoming req see (Count)
system.mem_ctrl.wrQLenPdf::34                       0                       # What write queue length does an incoming req see (Count)
system.mem_ctrl.wrQLenPdf::35                       0                       # What write queue length does an incoming req see (Count)
system.mem_ctrl.wrQLenPdf::36                       0                       # What write queue length does an incoming req see (Count)
system.mem_ctrl.wrQLenPdf::37                       0                       # What write queue length does an incoming req see (Count)
system.mem_ctrl.wrQLenPdf::38                       0                       # What write queue length does an incoming req see (Count)
system.mem_ctrl.wrQLenPdf::39                       0                       # What write queue length does an incoming req see (Count)
system.mem_ctrl.wrQLenPdf::40                       0                       # What write queue length does an incoming req see (Count)
system.mem_ctrl.wrQLenPdf::41                       0                       # What write queue length does an incoming req see (Count)
system.mem_ctrl.wrQLenPdf::42                       0                       # What write queue length does an incoming req see (Count)
system.mem_ctrl.wrQLenPdf::43                       0                       # What write queue length does an incoming req see (Count)
system.mem_ctrl.wrQLenPdf::44                       0                       # What write queue length does an incoming req see (Count)
system.mem_ctrl.wrQLenPdf::45                       0                       # What write queue length does an incoming req see (Count)
system.mem_ctrl.wrQLenPdf::46                       0                       # What write queue length does an incoming req see (Count)
system.mem_ctrl.wrQLenPdf::47                       0                       # What write queue length does an incoming req see (Count)
system.mem_ctrl.wrQLenPdf::48                       0                       # What write queue length does an incoming req see (Count)
system.mem_ctrl.wrQLenPdf::49                       0                       # What write queue length does an incoming req see (Count)
system.mem_ctrl.wrQLenPdf::50                       0                       # What write queue length does an incoming req see (Count)
system.mem_ctrl.wrQLenPdf::51                       0                       # What write queue length does an incoming req see (Count)
system.mem_ctrl.wrQLenPdf::52                       0                       # What write queue length does an incoming req see (Count)
system.mem_ctrl.wrQLenPdf::53                       0                       # What write queue length does an incoming req see (Count)
system.mem_ctrl.wrQLenPdf::54                       0                       # What write queue length does an incoming req see (Count)
system.mem_ctrl.wrQLenPdf::55                       0                       # What write queue length does an incoming req see (Count)
system.mem_ctrl.wrQLenPdf::56                       0                       # What write queue length does an incoming req see (Count)
system.mem_ctrl.wrQLenPdf::57                       0                       # What write queue length does an incoming req see (Count)
system.mem_ctrl.wrQLenPdf::58                       0                       # What write queue length does an incoming req see (Count)
system.mem_ctrl.wrQLenPdf::59                       0                       # What write queue length does an incoming req see (Count)
system.mem_ctrl.wrQLenPdf::60                       0                       # What write queue length does an incoming req see (Count)
system.mem_ctrl.wrQLenPdf::61                       0                       # What write queue length does an incoming req see (Count)
system.mem_ctrl.wrQLenPdf::62                       0                       # What write queue length does an incoming req see (Count)
system.mem_ctrl.wrQLenPdf::63                       0                       # What write queue length does an incoming req see (Count)
system.mem_ctrl.rdPerTurnAround::samples        30665                       # Reads before turning the bus around for writes (Count)
system.mem_ctrl.rdPerTurnAround::mean    17628.500277                       # Reads before turning the bus around for writes (Count)
system.mem_ctrl.rdPerTurnAround::stdev   16022.780316                       # Reads before turning the bus around for writes (Count)
system.mem_ctrl.rdPerTurnAround::0-4095          1667      5.44%      5.44% # Reads before turning the bus around for writes (Count)
system.mem_ctrl.rdPerTurnAround::4096-8191        16373     53.39%     58.83% # Reads before turning the bus around for writes (Count)
system.mem_ctrl.rdPerTurnAround::8192-12287         1776      5.79%     64.62% # Reads before turning the bus around for writes (Count)
system.mem_ctrl.rdPerTurnAround::12288-16383          345      1.13%     65.75% # Reads before turning the bus around for writes (Count)
system.mem_ctrl.rdPerTurnAround::16384-20479           33      0.11%     65.85% # Reads before turning the bus around for writes (Count)
system.mem_ctrl.rdPerTurnAround::20480-24575          424      1.38%     67.24% # Reads before turning the bus around for writes (Count)
system.mem_ctrl.rdPerTurnAround::24576-28671          798      2.60%     69.84% # Reads before turning the bus around for writes (Count)
system.mem_ctrl.rdPerTurnAround::28672-32767            5      0.02%     69.85% # Reads before turning the bus around for writes (Count)
system.mem_ctrl.rdPerTurnAround::32768-36863         1688      5.50%     75.36% # Reads before turning the bus around for writes (Count)
system.mem_ctrl.rdPerTurnAround::36864-40959         5157     16.82%     92.18% # Reads before turning the bus around for writes (Count)
system.mem_ctrl.rdPerTurnAround::40960-45055          135      0.44%     92.62% # Reads before turning the bus around for writes (Count)
system.mem_ctrl.rdPerTurnAround::45056-49151         2059      6.71%     99.33% # Reads before turning the bus around for writes (Count)
system.mem_ctrl.rdPerTurnAround::49152-53247          200      0.65%     99.98% # Reads before turning the bus around for writes (Count)
system.mem_ctrl.rdPerTurnAround::53248-57343            2      0.01%     99.99% # Reads before turning the bus around for writes (Count)
system.mem_ctrl.rdPerTurnAround::65536-69631            1      0.00%     99.99% # Reads before turning the bus around for writes (Count)
system.mem_ctrl.rdPerTurnAround::86016-90111            1      0.00%    100.00% # Reads before turning the bus around for writes (Count)
system.mem_ctrl.rdPerTurnAround::118784-122879            1      0.00%    100.00% # Reads before turning the bus around for writes (Count)
system.mem_ctrl.rdPerTurnAround::total          30665                       # Reads before turning the bus around for writes (Count)
system.mem_ctrl.wrPerTurnAround::samples        30665                       # Writes before turning the bus around for reads (Count)
system.mem_ctrl.wrPerTurnAround::mean       16.001761                       # Writes before turning the bus around for reads (Count)
system.mem_ctrl.wrPerTurnAround::gmean      16.001659                       # Writes before turning the bus around for reads (Count)
system.mem_ctrl.wrPerTurnAround::stdev       0.059321                       # Writes before turning the bus around for reads (Count)
system.mem_ctrl.wrPerTurnAround::16             30638     99.91%     99.91% # Writes before turning the bus around for reads (Count)
system.mem_ctrl.wrPerTurnAround::18                27      0.09%    100.00% # Writes before turning the bus around for reads (Count)
system.mem_ctrl.wrPerTurnAround::total          30665                       # Writes before turning the bus around for reads (Count)
system.mem_ctrl.bytesReadWrQ                633899456                       # Total number of bytes read from write queue (Byte)
system.mem_ctrl.bytesReadSys               4244237828                       # Total read bytes from the system interface side (Byte)
system.mem_ctrl.bytesWrittenSys             286680076                       # Total written bytes from the system interface side (Byte)
system.mem_ctrl.avgRdBWSys               143893049.73940054                       # Average system read bandwidth in Byte/s ((Byte/Second))
system.mem_ctrl.avgWrBWSys               9719358.83588358                       # Average system write bandwidth in Byte/s ((Byte/Second))
system.mem_ctrl.totGap                   29495780495000                       # Total gap between requests (Tick)
system.mem_ctrl.avgGap                       49891.47                       # Average gap between requests ((Tick/Count))
system.mem_ctrl.requestorReadBytes::cpu.inst   3689772552                       # Per-requestor bytes read from memory (Byte)
system.mem_ctrl.requestorReadBytes::cpu.data    489331899                       # Per-requestor bytes read from memory (Byte)
system.mem_ctrl.requestorWriteBytes::cpu.data      3268952                       # Per-requestor bytes write to memory (Byte)
system.mem_ctrl.requestorReadRate::cpu.inst 125094927.963120475411                       # Per-requestor bytes read from memory rate ((Byte/Second))
system.mem_ctrl.requestorReadRate::cpu.data 16589894.849286077544                       # Per-requestor bytes read from memory rate ((Byte/Second))
system.mem_ctrl.requestorWriteRate::cpu.data 110827.783878776769                       # Per-requestor bytes write to memory rate ((Byte/Second))
system.mem_ctrl.requestorReadAccesses::cpu.inst    461221569                       # Per-requestor read serviced memory accesses (Count)
system.mem_ctrl.requestorReadAccesses::cpu.data     89261551                       # Per-requestor read serviced memory accesses (Count)
system.mem_ctrl.requestorWriteAccesses::cpu.data     40715801                       # Per-requestor write serviced memory accesses (Count)
system.mem_ctrl.requestorReadTotalLat::cpu.inst 10001830557500                       # Per-requestor read total memory access latency (Tick)
system.mem_ctrl.requestorReadTotalLat::cpu.data 2070749007500                       # Per-requestor read total memory access latency (Tick)
system.mem_ctrl.requestorWriteTotalLat::cpu.data 866040074245000                       # Per-requestor write total memory access latency (Tick)
system.mem_ctrl.requestorReadAvgLat::cpu.inst     21685.52                       # Per-requestor read average memory access latency ((Tick/Count))
system.mem_ctrl.requestorReadAvgLat::cpu.data     23198.67                       # Per-requestor read average memory access latency ((Tick/Count))
system.mem_ctrl.requestorWriteAvgLat::cpu.data  21270368.09                       # Per-requestor write average memory access latency ((Tick/Count))
system.mem_ctrl.dram.bytesRead::cpu.inst   3689772552                       # Number of bytes read from this memory (Byte)
system.mem_ctrl.dram.bytesRead::cpu.data    554465276                       # Number of bytes read from this memory (Byte)
system.mem_ctrl.dram.bytesRead::total      4244237828                       # Number of bytes read from this memory (Byte)
system.mem_ctrl.dram.bytesInstRead::cpu.inst   3689772552                       # Number of instructions bytes read from this memory (Byte)
system.mem_ctrl.dram.bytesInstRead::total   3689772552                       # Number of instructions bytes read from this memory (Byte)
system.mem_ctrl.dram.bytesWritten::cpu.data    286680076                       # Number of bytes written to this memory (Byte)
system.mem_ctrl.dram.bytesWritten::total    286680076                       # Number of bytes written to this memory (Byte)
system.mem_ctrl.dram.numReads::cpu.inst     461221569                       # Number of read requests responded to by this memory (Count)
system.mem_ctrl.dram.numReads::cpu.data      89261551                       # Number of read requests responded to by this memory (Count)
system.mem_ctrl.dram.numReads::total        550483120                       # Number of read requests responded to by this memory (Count)
system.mem_ctrl.dram.numWrites::cpu.data     40715801                       # Number of write requests responded to by this memory (Count)
system.mem_ctrl.dram.numWrites::total        40715801                       # Number of write requests responded to by this memory (Count)
system.mem_ctrl.dram.bwRead::cpu.inst       125094928                       # Total read bandwidth from this memory ((Byte/Second))
system.mem_ctrl.dram.bwRead::cpu.data        18798122                       # Total read bandwidth from this memory ((Byte/Second))
system.mem_ctrl.dram.bwRead::total          143893050                       # Total read bandwidth from this memory ((Byte/Second))
system.mem_ctrl.dram.bwInstRead::cpu.inst    125094928                       # Instruction read bandwidth from this memory ((Byte/Second))
system.mem_ctrl.dram.bwInstRead::total      125094928                       # Instruction read bandwidth from this memory ((Byte/Second))
system.mem_ctrl.dram.bwWrite::cpu.data        9719359                       # Write bandwidth from this memory ((Byte/Second))
system.mem_ctrl.dram.bwWrite::total           9719359                       # Write bandwidth from this memory ((Byte/Second))
system.mem_ctrl.dram.bwTotal::cpu.inst      125094928                       # Total bandwidth to/from this memory ((Byte/Second))
system.mem_ctrl.dram.bwTotal::cpu.data       28517481                       # Total bandwidth to/from this memory ((Byte/Second))
system.mem_ctrl.dram.bwTotal::total         153612409                       # Total bandwidth to/from this memory ((Byte/Second))
system.mem_ctrl.dram.readBursts             540578441                       # Number of DRAM read bursts (Count)
system.mem_ctrl.dram.writeBursts               490694                       # Number of DRAM write bursts (Count)
system.mem_ctrl.dram.perBankRdBursts::0      68188804                       # Per bank write bursts (Count)
system.mem_ctrl.dram.perBankRdBursts::1     147393437                       # Per bank write bursts (Count)
system.mem_ctrl.dram.perBankRdBursts::2      42527721                       # Per bank write bursts (Count)
system.mem_ctrl.dram.perBankRdBursts::3       7664347                       # Per bank write bursts (Count)
system.mem_ctrl.dram.perBankRdBursts::4      19615098                       # Per bank write bursts (Count)
system.mem_ctrl.dram.perBankRdBursts::5      15061502                       # Per bank write bursts (Count)
system.mem_ctrl.dram.perBankRdBursts::6      60158009                       # Per bank write bursts (Count)
system.mem_ctrl.dram.perBankRdBursts::7      12229838                       # Per bank write bursts (Count)
system.mem_ctrl.dram.perBankRdBursts::8       4637560                       # Per bank write bursts (Count)
system.mem_ctrl.dram.perBankRdBursts::9       3032805                       # Per bank write bursts (Count)
system.mem_ctrl.dram.perBankRdBursts::10     12372008                       # Per bank write bursts (Count)
system.mem_ctrl.dram.perBankRdBursts::11     11030749                       # Per bank write bursts (Count)
system.mem_ctrl.dram.perBankRdBursts::12     55238800                       # Per bank write bursts (Count)
system.mem_ctrl.dram.perBankRdBursts::13     18497053                       # Per bank write bursts (Count)
system.mem_ctrl.dram.perBankRdBursts::14     50986662                       # Per bank write bursts (Count)
system.mem_ctrl.dram.perBankRdBursts::15     11944048                       # Per bank write bursts (Count)
system.mem_ctrl.dram.perBankWrBursts::0         71842                       # Per bank write bursts (Count)
system.mem_ctrl.dram.perBankWrBursts::1           458                       # Per bank write bursts (Count)
system.mem_ctrl.dram.perBankWrBursts::2           176                       # Per bank write bursts (Count)
system.mem_ctrl.dram.perBankWrBursts::3           152                       # Per bank write bursts (Count)
system.mem_ctrl.dram.perBankWrBursts::4           496                       # Per bank write bursts (Count)
system.mem_ctrl.dram.perBankWrBursts::5         17801                       # Per bank write bursts (Count)
system.mem_ctrl.dram.perBankWrBursts::6        386547                       # Per bank write bursts (Count)
system.mem_ctrl.dram.perBankWrBursts::7          2026                       # Per bank write bursts (Count)
system.mem_ctrl.dram.perBankWrBursts::8           287                       # Per bank write bursts (Count)
system.mem_ctrl.dram.perBankWrBursts::9             0                       # Per bank write bursts (Count)
system.mem_ctrl.dram.perBankWrBursts::10        10232                       # Per bank write bursts (Count)
system.mem_ctrl.dram.perBankWrBursts::11          236                       # Per bank write bursts (Count)
system.mem_ctrl.dram.perBankWrBursts::12            0                       # Per bank write bursts (Count)
system.mem_ctrl.dram.perBankWrBursts::13           54                       # Per bank write bursts (Count)
system.mem_ctrl.dram.perBankWrBursts::14          261                       # Per bank write bursts (Count)
system.mem_ctrl.dram.perBankWrBursts::15          126                       # Per bank write bursts (Count)
system.mem_ctrl.dram.totQLat             1936733796250                       # Total ticks spent queuing (Tick)
system.mem_ctrl.dram.totBusLat           2702892205000                       # Total ticks spent in databus transfers (Tick)
system.mem_ctrl.dram.totMemAccLat        12072579565000                       # Total ticks spent from burst creation until serviced by the DRAM (Tick)
system.mem_ctrl.dram.avgQLat                  3582.71                       # Average queueing delay per DRAM burst ((Tick/Count))
system.mem_ctrl.dram.avgBusLat                5000.00                       # Average bus latency per DRAM burst ((Tick/Count))
system.mem_ctrl.dram.avgMemAccLat            22332.71                       # Average memory access latency per DRAM burst ((Tick/Count))
system.mem_ctrl.dram.readRowHits            480955503                       # Number of row buffer hits during reads (Count)
system.mem_ctrl.dram.writeRowHits              417826                       # Number of row buffer hits during writes (Count)
system.mem_ctrl.dram.readRowHitRate             88.97                       # Row buffer hit rate for reads (Ratio)
system.mem_ctrl.dram.writeRowHitRate            85.15                       # Row buffer hit rate for writes (Ratio)
system.mem_ctrl.dram.bytesPerActivate::samples     59695801                       # Bytes accessed per row activation (Byte)
system.mem_ctrl.dram.bytesPerActivate::mean   580.081383                       # Bytes accessed per row activation (Byte)
system.mem_ctrl.dram.bytesPerActivate::gmean   358.350731                       # Bytes accessed per row activation (Byte)
system.mem_ctrl.dram.bytesPerActivate::stdev   421.434988                       # Bytes accessed per row activation (Byte)
system.mem_ctrl.dram.bytesPerActivate::0-127     13547538     22.69%     22.69% # Bytes accessed per row activation (Byte)
system.mem_ctrl.dram.bytesPerActivate::128-255      7431032     12.45%     35.14% # Bytes accessed per row activation (Byte)
system.mem_ctrl.dram.bytesPerActivate::256-383      4176212      7.00%     42.14% # Bytes accessed per row activation (Byte)
system.mem_ctrl.dram.bytesPerActivate::384-511      3163572      5.30%     47.44% # Bytes accessed per row activation (Byte)
system.mem_ctrl.dram.bytesPerActivate::512-639      1649071      2.76%     50.20% # Bytes accessed per row activation (Byte)
system.mem_ctrl.dram.bytesPerActivate::640-767      2166282      3.63%     53.83% # Bytes accessed per row activation (Byte)
system.mem_ctrl.dram.bytesPerActivate::768-895      1453845      2.44%     56.26% # Bytes accessed per row activation (Byte)
system.mem_ctrl.dram.bytesPerActivate::896-1023      1145995      1.92%     58.18% # Bytes accessed per row activation (Byte)
system.mem_ctrl.dram.bytesPerActivate::1024-1151     24962254     41.82%    100.00% # Bytes accessed per row activation (Byte)
system.mem_ctrl.dram.bytesPerActivate::total     59695801                       # Bytes accessed per row activation (Byte)
system.mem_ctrl.dram.bytesRead            34597020224                       # Total bytes read (Byte)
system.mem_ctrl.dram.bytesWritten            31404416                       # Total bytes written (Byte)
system.mem_ctrl.dram.avgRdBW              1172.948113                       # Average DRAM read bandwidth in MiBytes/s ((Byte/Second))
system.mem_ctrl.dram.avgWrBW                 1.064709                       # Average DRAM write bandwidth in MiBytes/s ((Byte/Second))
system.mem_ctrl.dram.peakBW                  12800.00                       # Theoretical peak bandwidth in MiByte/s ((Byte/Second))
system.mem_ctrl.dram.busUtil                     9.17                       # Data bus utilization in percentage (Ratio)
system.mem_ctrl.dram.busUtilRead                 9.16                       # Data bus utilization in percentage for reads (Ratio)
system.mem_ctrl.dram.busUtilWrite                0.01                       # Data bus utilization in percentage for writes (Ratio)
system.mem_ctrl.dram.pageHitRate                88.97                       # Row buffer hit rate, read and write combined (Ratio)
system.mem_ctrl.dram.power_state.pwrStateResidencyTicks::UNDEFINED 29495780621000                       # Cumulative time (in ticks) in various power states (Tick)
system.mem_ctrl.dram.rank0.actEnergy     284572975260                       # Energy for activate commands per rank (pJ) (Joule)
system.mem_ctrl.dram.rank0.preEnergy     151254108225                       # Energy for precharge commands per rank (pJ) (Joule)
system.mem_ctrl.dram.rank0.readEnergy    2662068717840                       # Energy for read commands per rank (pJ) (Joule)
system.mem_ctrl.dram.rank0.writeEnergy     2502979560                       # Energy for write commands per rank (pJ) (Joule)
system.mem_ctrl.dram.rank0.refreshEnergy 2328371872320.000488                       # Energy for refresh commands per rank (pJ) (Joule)
system.mem_ctrl.dram.rank0.actBackEnergy 13115838750540                       # Energy for active background per rank (pJ) (Joule)
system.mem_ctrl.dram.rank0.preBackEnergy 281462916000                       # Energy for precharge background per rank (pJ) (Joule)
system.mem_ctrl.dram.rank0.actPowerDownEnergy            0                       # Energy for active power-down per rank (pJ) (Joule)
system.mem_ctrl.dram.rank0.prePowerDownEnergy            0                       # Energy for precharge power-down per rank (pJ) (Joule)
system.mem_ctrl.dram.rank0.selfRefreshEnergy            0                       # Energy for self refresh per rank (pJ) (Joule)
system.mem_ctrl.dram.rank0.totalEnergy   18826072319745                       # Total energy per rank (pJ) (Joule)
system.mem_ctrl.dram.rank0.averagePower    638.263234                       # Core power per rank (mW) (Watt)
system.mem_ctrl.dram.rank0.totalIdleTime            0                       # Total Idle time Per DRAM Rank (Tick)
system.mem_ctrl.dram.rank0.pwrStateTime::IDLE 606884204000                       # Time in different power states (Tick)
system.mem_ctrl.dram.rank0.pwrStateTime::REF 984928880000                       # Time in different power states (Tick)
system.mem_ctrl.dram.rank0.pwrStateTime::SREF            0                       # Time in different power states (Tick)
system.mem_ctrl.dram.rank0.pwrStateTime::PRE_PDN            0                       # Time in different power states (Tick)
system.mem_ctrl.dram.rank0.pwrStateTime::ACT 27903967537000                       # Time in different power states (Tick)
system.mem_ctrl.dram.rank0.pwrStateTime::ACT_PDN            0                       # Time in different power states (Tick)
system.mem_ctrl.dram.rank1.actEnergy     141655079580                       # Energy for activate commands per rank (pJ) (Joule)
system.mem_ctrl.dram.rank1.preEnergy      75291456570                       # Energy for precharge commands per rank (pJ) (Joule)
system.mem_ctrl.dram.rank1.readEnergy    1197661350900                       # Energy for read commands per rank (pJ) (Joule)
system.mem_ctrl.dram.rank1.writeEnergy       58443120                       # Energy for write commands per rank (pJ) (Joule)
system.mem_ctrl.dram.rank1.refreshEnergy 2328371872320.000488                       # Energy for refresh commands per rank (pJ) (Joule)
system.mem_ctrl.dram.rank1.actBackEnergy 8865124812930                       # Energy for active background per rank (pJ) (Joule)
system.mem_ctrl.dram.rank1.preBackEnergy 3861011495040                       # Energy for precharge background per rank (pJ) (Joule)
system.mem_ctrl.dram.rank1.actPowerDownEnergy            0                       # Energy for active power-down per rank (pJ) (Joule)
system.mem_ctrl.dram.rank1.prePowerDownEnergy            0                       # Energy for precharge power-down per rank (pJ) (Joule)
system.mem_ctrl.dram.rank1.selfRefreshEnergy            0                       # Energy for self refresh per rank (pJ) (Joule)
system.mem_ctrl.dram.rank1.totalEnergy   16469174510460                       # Total energy per rank (pJ) (Joule)
system.mem_ctrl.dram.rank1.averagePower    558.356964                       # Core power per rank (mW) (Watt)
system.mem_ctrl.dram.rank1.totalIdleTime            0                       # Total Idle time Per DRAM Rank (Tick)
system.mem_ctrl.dram.rank1.pwrStateTime::IDLE 9926413568250                       # Time in different power states (Tick)
system.mem_ctrl.dram.rank1.pwrStateTime::REF 984928880000                       # Time in different power states (Tick)
system.mem_ctrl.dram.rank1.pwrStateTime::SREF            0                       # Time in different power states (Tick)
system.mem_ctrl.dram.rank1.pwrStateTime::PRE_PDN            0                       # Time in different power states (Tick)
system.mem_ctrl.dram.rank1.pwrStateTime::ACT 18584438172750                       # Time in different power states (Tick)
system.mem_ctrl.dram.rank1.pwrStateTime::ACT_PDN            0                       # Time in different power states (Tick)
system.mem_ctrl.power_state.pwrStateResidencyTicks::UNDEFINED 29495780621000                       # Cumulative time (in ticks) in various power states (Tick)
system.membus.transDist::ReadReq            550483120                       # Transaction distribution (Count)
system.membus.transDist::ReadResp           550483120                       # Transaction distribution (Count)
system.membus.transDist::WriteReq            40715801                       # Transaction distribution (Count)
system.membus.transDist::WriteResp           40715801                       # Transaction distribution (Count)
system.membus.pktCount_system.cpu.icache_port::system.mem_ctrl.port    922443138                       # Packet count per connected requestor and responder (Count)
system.membus.pktCount_system.cpu.icache_port::total    922443138                       # Packet count per connected requestor and responder (Count)
system.membus.pktCount_system.cpu.dcache_port::system.mem_ctrl.port    259954704                       # Packet count per connected requestor and responder (Count)
system.membus.pktCount_system.cpu.dcache_port::total    259954704                       # Packet count per connected requestor and responder (Count)
system.membus.pktCount::total              1182397842                       # Packet count per connected requestor and responder (Count)
system.membus.pktSize_system.cpu.icache_port::system.mem_ctrl.port   3689772552                       # Cumulative packet size per connected requestor and responder (Byte)
system.membus.pktSize_system.cpu.icache_port::total   3689772552                       # Cumulative packet size per connected requestor and responder (Byte)
system.membus.pktSize_system.cpu.dcache_port::system.mem_ctrl.port    841145352                       # Cumulative packet size per connected requestor and responder (Byte)
system.membus.pktSize_system.cpu.dcache_port::total    841145352                       # Cumulative packet size per connected requestor and responder (Byte)
system.membus.pktSize::total               4530917904                       # Cumulative packet size per connected requestor and responder (Byte)
system.membus.snoops                                0                       # Total snoops (Count)
system.membus.snoopTraffic                          0                       # Total snoop traffic (Byte)
system.membus.snoopFanout::samples          591198921                       # Request fanout histogram (Count)
system.membus.snoopFanout::mean                     0                       # Request fanout histogram (Count)
system.membus.snoopFanout::stdev                    0                       # Request fanout histogram (Count)
system.membus.snoopFanout::underflows               0      0.00%      0.00% # Request fanout histogram (Count)
system.membus.snoopFanout::0                591198921    100.00%    100.00% # Request fanout histogram (Count)
system.membus.snoopFanout::1                        0      0.00%    100.00% # Request fanout histogram (Count)
system.membus.snoopFanout::overflows                0      0.00%    100.00% # Request fanout histogram (Count)
system.membus.snoopFanout::min_value                0                       # Request fanout histogram (Count)
system.membus.snoopFanout::max_value                0                       # Request fanout histogram (Count)
system.membus.snoopFanout::total            591198921                       # Request fanout histogram (Count)
system.membus.power_state.pwrStateResidencyTicks::UNDEFINED 29495780621000                       # Cumulative time (in ticks) in various power states (Tick)
system.membus.reqLayer2.occupancy        631914722000                       # Layer occupancy (ticks) (Tick)
system.membus.reqLayer2.utilization               0.0                       # Layer utilization (Ratio)
system.membus.respLayer0.occupancy       1047432907500                       # Layer occupancy (ticks) (Tick)
system.membus.respLayer0.utilization              0.0                       # Layer utilization (Ratio)
system.membus.respLayer1.occupancy       247180207500                       # Layer occupancy (ticks) (Tick)
system.membus.respLayer1.utilization              0.0                       # Layer utilization (Ratio)
system.membus.snoop_filter.totRequests              0                       # Total number of requests made to the snoop filter. (Count)
system.membus.snoop_filter.hitSingleRequests            0                       # Number of requests hitting in the snoop filter with a single holder of the requested data. (Count)
system.membus.snoop_filter.hitMultiRequests            0                       # Number of requests hitting in the snoop filter with multiple (>1) holders of the requested data. (Count)
system.membus.snoop_filter.totSnoops                0                       # Total number of snoops made to the snoop filter. (Count)
system.membus.snoop_filter.hitSingleSnoops            0                       # Number of snoops hitting in the snoop filter with a single holder of the requested data. (Count)
system.membus.snoop_filter.hitMultiSnoops            0                       # Number of snoops hitting in the snoop filter with multiple (>1) holders of the requested data. (Count)
system.workload.inst.arm                            0                       # number of arm instructions executed (Count)
system.workload.inst.quiesce                        0                       # number of quiesce instructions executed (Count)

---------- End Simulation Statistics   ----------
